BEGIN Configuration File: D:\noc_huawei\noc\booksim2-noc_speedup_study\booksim2-noc_speedup_study\tests\data\results\random_perm_growth_models_perm_p3_peak_0p8\tmp_configs\linear_scale_hybrid_xy_racke_s2201.config
num_vcs     = 48;
vc_buf_size = 16;
wait_for_tail_credit = 1;

vc_allocator = islip;
sw_allocator = islip;
alloc_iters  = 16;

credit_delay   = 2;
routing_delay  = 0;
vc_alloc_delay = 1;
sw_alloc_delay = 1;
st_final_delay = 1;

input_speedup     = 1;
output_speedup    = 1;
internal_speedup  = 2.0;

sim_type = latency;
latency_thres  = 100000.0;
sim_count      = 1;
queue_sample_period_cycles = 0;

topology = mesh;
k  = 3;
n  = 2;

hybrid_transition_mode = linear_prob;
hybrid_xy_low_threshold = 0.35;
hybrid_racke_high_threshold = 0.65;
hybrid_buffer_soft_threshold = 0.50;
hybrid_buffer_hard_threshold = 0.85;
hybrid_buffer_release_threshold = 0.35;
hybrid_rate_soft_threshold = 0.55;
hybrid_rate_hard_threshold = 0.90;
hybrid_rate_weight = 0.25;
hybrid_congestion_alpha = 0.25;
hybrid_racke_increase_step = 0.25;
hybrid_racke_decrease_step = 0.10;
hybrid_epoch_cycles = 200;
hybrid_hold_cycles = 600;
hybrid_enable_midflight_override = 1;
hybrid_feedback_delay_per_hop = 1;
hybrid_flow_increase_step = 0.20;
hybrid_flow_decrease_step = 0.08;
hybrid_flow_hard_threshold = 0.95;

packet_size = 1;


ordered_injection_coefficients = {0.1666666667,0.3333333333,0.5};
ordered_injection_phase_cycles = {1000,1000,1000};
ordered_injection_source_order = {4,0,7,2,8,1,5,3,6};
ordered_injection_flow_peak_rate = 0.60;
warmup_periods = 2;
custom_perm_array = {4,7,6,5,1,2,0,8,3};
injection_process = scheduled;
injection_rate = 0.8;
scheduled_default_phase_cycles = 3000;
perm_seed = 2201;
hybrid_flow_hotspot_alpha = 0.85;
hybrid_stats_window_cycles = 3000;
hybrid_flow_hotspot_threshold = 1.1;
sample_period = 3000;
scheduled_injection_rates = {0.1,0.2,0.3,0.4,0.5,0.6,0.7,0.8,0.8,0.8};
traffic = custom_perm;
routing_function = hybrid_xy_racke;
scheduled_phase_cycles = {3000,3000,3000,3000,3000,3000,3000,3000,3000,3000};
seed = 2201;
max_samples = 18;

END Configuration File: D:\noc_huawei\noc\booksim2-noc_speedup_study\booksim2-noc_speedup_study\tests\data\results\random_perm_growth_models_perm_p3_peak_0p8\tmp_configs\linear_scale_hybrid_xy_racke_s2201.config
Class 0:
Packet latency average = 11.0533
	minimum = 8
	maximum = 17
	95th percentile = 17.5
	99th percentile = 17.5
Network latency average = 11.0533
	minimum = 8
	maximum = 17
	95th percentile = 17.5
	99th percentile = 17.5
Slowest packet = 3
Flit latency average = 11.0533
	minimum = 8
	maximum = 17
	95th percentile = 17.5
	99th percentile = 17.5
Slowest flit = 3
Fragmentation average = 0
	minimum = 0
	maximum = 0
Injected packet rate average = 0.0997037
	minimum = 0.0933333 (at node 4)
	maximum = 0.104667 (at node 6)
Accepted packet rate average = 0.0992963
	minimum = 0.092 (at node 1)
	maximum = 0.104667 (at node 0)
Injected flit rate average = 0.0997037
	minimum = 0.0933333 (at node 4)
	maximum = 0.104667 (at node 6)
Accepted flit rate average= 0.0992963
	minimum = 0.092 (at node 1)
	maximum = 0.104667 (at node 0)
Injected packet length average = 1
Accepted packet length average = 1
Total in-flight flits = 11 (0 measured)
====== Peak Queue Occupancy Statistics (Absolute Max) ======
  Overall Max VC Occupancy = 1
  Overall Max Buffer Occupancy = 2
latency change    = 1
throughput change = 1
Class 0:
Packet latency average = 11.0948
	minimum = 8
	maximum = 17
	95th percentile = 17.5
	99th percentile = 17.5
Network latency average = 11.0948
	minimum = 8
	maximum = 17
	95th percentile = 17.5
	99th percentile = 17.5
Slowest packet = 3
Flit latency average = 11.0948
	minimum = 8
	maximum = 17
	95th percentile = 17.5
	99th percentile = 17.5
Slowest flit = 3
Fragmentation average = 0
	minimum = 0
	maximum = 0
Injected packet rate average = 0.151037
	minimum = 0.146 (at node 5)
	maximum = 0.158833 (at node 1)
Accepted packet rate average = 0.150593
	minimum = 0.1455 (at node 2)
	maximum = 0.158167 (at node 7)
Injected flit rate average = 0.151037
	minimum = 0.146 (at node 5)
	maximum = 0.158833 (at node 1)
Accepted flit rate average= 0.150593
	minimum = 0.1455 (at node 2)
	maximum = 0.158167 (at node 7)
Injected packet length average = 1
Accepted packet length average = 1
Total in-flight flits = 24 (0 measured)
====== Peak Queue Occupancy Statistics (Absolute Max) ======
  Overall Max VC Occupancy = 1
  Overall Max Buffer Occupancy = 2
latency change    = 0.00373799
throughput change = 0.34063
Warmed up ...Time used is 6000 cycles
Class 0:
Packet latency average = 11.1294
	minimum = 8
	maximum = 18
	95th percentile = 17.5
	99th percentile = 17.5
Network latency average = 11.1294
	minimum = 8
	maximum = 18
	95th percentile = 17.5
	99th percentile = 17.5
Slowest packet = 10388
Flit latency average = 11.1315
	minimum = 8
	maximum = 18
	95th percentile = 17.5
	99th percentile = 17.5
Slowest flit = 10388
Fragmentation average = 0
	minimum = 0
	maximum = 0
Injected packet rate average = 0.296741
	minimum = 0.284333 (at node 1)
	maximum = 0.308 (at node 4)
Accepted packet rate average = 0.296481
	minimum = 0.285333 (at node 7)
	maximum = 0.306667 (at node 1)
Injected flit rate average = 0.296741
	minimum = 0.284333 (at node 1)
	maximum = 0.308 (at node 4)
Accepted flit rate average= 0.296481
	minimum = 0.285333 (at node 7)
	maximum = 0.306667 (at node 1)
Injected packet length average = 1
Accepted packet length average = 1
Total in-flight flits = 31 (31 measured)
====== Peak Queue Occupancy Statistics (Absolute Max) ======
  Overall Max VC Occupancy = 1
  Overall Max Buffer Occupancy = 2
latency change    = 0.00311083
throughput change = 0.492067
Class 0:
Packet latency average = 11.3109
	minimum = 8
	maximum = 20
	95th percentile = 17.5
	99th percentile = 17.5
Network latency average = 11.3109
	minimum = 8
	maximum = 20
	95th percentile = 17.5
	99th percentile = 17.5
Slowest packet = 16501
Flit latency average = 11.3116
	minimum = 8
	maximum = 20
	95th percentile = 17.5
	99th percentile = 17.5
Slowest flit = 16501
Fragmentation average = 0
	minimum = 0
	maximum = 0
Injected packet rate average = 0.349111
	minimum = 0.343167 (at node 1)
	maximum = 0.36 (at node 4)
Accepted packet rate average = 0.348778
	minimum = 0.343 (at node 2)
	maximum = 0.359333 (at node 1)
Injected flit rate average = 0.349111
	minimum = 0.343167 (at node 1)
	maximum = 0.36 (at node 4)
Accepted flit rate average= 0.348778
	minimum = 0.343 (at node 2)
	maximum = 0.359333 (at node 1)
Injected packet length average = 1
Accepted packet length average = 1
Total in-flight flits = 42 (42 measured)
====== Peak Queue Occupancy Statistics (Absolute Max) ======
  Overall Max VC Occupancy = 1
  Overall Max Buffer Occupancy = 2
latency change    = 0.0160435
throughput change = 0.149942
Class 0:
Packet latency average = 16.382
	minimum = 8
	maximum = 127
	95th percentile = 53.5
	99th percentile = 72.5
Network latency average = 16.382
	minimum = 8
	maximum = 127
	95th percentile = 53.5
	99th percentile = 72.5
Slowest packet = 39399
Flit latency average = 16.3786
	minimum = 8
	maximum = 127
	95th percentile = 53.5
	99th percentile = 72.5
Slowest flit = 39399
Fragmentation average = 0
	minimum = 0
	maximum = 0
Injected packet rate average = 0.40063
	minimum = 0.393778 (at node 8)
	maximum = 0.407222 (at node 4)
Accepted packet rate average = 0.399136
	minimum = 0.392111 (at node 3)
	maximum = 0.407111 (at node 1)
Injected flit rate average = 0.40063
	minimum = 0.393778 (at node 8)
	maximum = 0.407222 (at node 4)
Accepted flit rate average= 0.399136
	minimum = 0.392111 (at node 3)
	maximum = 0.407111 (at node 1)
Injected packet length average = 1
Accepted packet length average = 1
Total in-flight flits = 145 (145 measured)
====== Peak Queue Occupancy Statistics (Absolute Max) ======
  Overall Max VC Occupancy = 1
  Overall Max Buffer Occupancy = 26
latency change    = 0.309553
throughput change = 0.126168
Class 0:
Packet latency average = 23.9775
	minimum = 8
	maximum = 579
	95th percentile = 76.5
	99th percentile = 166.5
Network latency average = 23.7316
	minimum = 8
	maximum = 579
	95th percentile = 73.5
	99th percentile = 165.5
Slowest packet = 42124
Flit latency average = 23.7257
	minimum = 8
	maximum = 579
	95th percentile = 73.5
	99th percentile = 165.5
Slowest flit = 42124
Fragmentation average = 0
	minimum = 0
	maximum = 0
Injected packet rate average = 0.450954
	minimum = 0.446833 (at node 8)
	maximum = 0.4555 (at node 4)
Accepted packet rate average = 0.448935
	minimum = 0.443917 (at node 3)
	maximum = 0.455 (at node 1)
Injected flit rate average = 0.450954
	minimum = 0.446833 (at node 8)
	maximum = 0.4555 (at node 4)
Accepted flit rate average= 0.448935
	minimum = 0.443917 (at node 3)
	maximum = 0.455 (at node 1)
Injected packet length average = 1
Accepted packet length average = 1
Total in-flight flits = 242 (242 measured)
====== Peak Queue Occupancy Statistics (Absolute Max) ======
  Overall Max VC Occupancy = 1
  Overall Max Buffer Occupancy = 48
latency change    = 0.316776
throughput change = 0.110928
Class 0:
Packet latency average = 29.034
	minimum = 8
	maximum = 814
	95th percentile = 96.5
	99th percentile = 239.5
Network latency average = 28.4256
	minimum = 8
	maximum = 814
	95th percentile = 91.5
	99th percentile = 237.5
Slowest packet = 60407
Flit latency average = 28.4196
	minimum = 8
	maximum = 814
	95th percentile = 91.5
	99th percentile = 237.5
Slowest flit = 60407
Fragmentation average = 0
	minimum = 0
	maximum = 0
Injected packet rate average = 0.501044
	minimum = 0.4964 (at node 8)
	maximum = 0.5044 (at node 4)
Accepted packet rate average = 0.499015
	minimum = 0.4936 (at node 7)
	maximum = 0.504067 (at node 1)
Injected flit rate average = 0.501044
	minimum = 0.4964 (at node 8)
	maximum = 0.5044 (at node 4)
Accepted flit rate average= 0.499015
	minimum = 0.4936 (at node 7)
	maximum = 0.504067 (at node 1)
Injected packet length average = 1
Accepted packet length average = 1
Total in-flight flits = 298 (298 measured)
====== Peak Queue Occupancy Statistics (Absolute Max) ======
  Overall Max VC Occupancy = 1
  Overall Max Buffer Occupancy = 48
latency change    = 0.174158
throughput change = 0.100357
Class 0:
Packet latency average = 38.1697
	minimum = 8
	maximum = 1118
	95th percentile = 136.5
	99th percentile = 342.5
Network latency average = 36.2475
	minimum = 8
	maximum = 1118
	95th percentile = 127.5
	99th percentile = 333.5
Slowest packet = 78555
Flit latency average = 36.2409
	minimum = 8
	maximum = 1118
	95th percentile = 127.5
	99th percentile = 332.5
Slowest flit = 78555
Fragmentation average = 0
	minimum = 0
	maximum = 0
Injected packet rate average = 0.550247
	minimum = 0.545667 (at node 1)
	maximum = 0.554056 (at node 2)
Accepted packet rate average = 0.547549
	minimum = 0.541 (at node 7)
	maximum = 0.552556 (at node 1)
Injected flit rate average = 0.550247
	minimum = 0.545667 (at node 1)
	maximum = 0.554056 (at node 2)
Accepted flit rate average= 0.547549
	minimum = 0.541 (at node 7)
	maximum = 0.552556 (at node 1)
Injected packet length average = 1
Accepted packet length average = 1
Total in-flight flits = 461 (461 measured)
====== Peak Queue Occupancy Statistics (Absolute Max) ======
  Overall Max VC Occupancy = 1
  Overall Max Buffer Occupancy = 48
latency change    = 0.239344
throughput change = 0.0886396
Class 0:
Packet latency average = 42.2746
	minimum = 8
	maximum = 1118
	95th percentile = 155.5
	99th percentile = 369.5
Network latency average = 39.1912
	minimum = 8
	maximum = 1118
	95th percentile = 143.5
	99th percentile = 359.5
Slowest packet = 78555
Flit latency average = 39.1853
	minimum = 8
	maximum = 1118
	95th percentile = 143.5
	99th percentile = 359.5
Slowest flit = 78555
Fragmentation average = 0
	minimum = 0
	maximum = 0
Injected packet rate average = 0.58636
	minimum = 0.581857 (at node 8)
	maximum = 0.590143 (at node 2)
Accepted packet rate average = 0.584534
	minimum = 0.57981 (at node 3)
	maximum = 0.588952 (at node 8)
Injected flit rate average = 0.58636
	minimum = 0.581857 (at node 8)
	maximum = 0.590143 (at node 2)
Accepted flit rate average= 0.584534
	minimum = 0.57981 (at node 3)
	maximum = 0.588952 (at node 8)
Injected packet length average = 1
Accepted packet length average = 1
Total in-flight flits = 369 (369 measured)
====== Peak Queue Occupancy Statistics (Absolute Max) ======
  Overall Max VC Occupancy = 1
  Overall Max Buffer Occupancy = 48
latency change    = 0.0971012
throughput change = 0.0632726
Class 0:
Packet latency average = 44.9528
	minimum = 8
	maximum = 1153
	95th percentile = 170.5
	99th percentile = 383.5
Network latency average = 40.729
	minimum = 8
	maximum = 1118
	95th percentile = 152.5
	99th percentile = 366.5
Slowest packet = 78555
Flit latency average = 40.7237
	minimum = 8
	maximum = 1118
	95th percentile = 152.5
	99th percentile = 366.5
Slowest flit = 78555
Fragmentation average = 0
	minimum = 0
	maximum = 0
Injected packet rate average = 0.612417
	minimum = 0.608375 (at node 8)
	maximum = 0.615625 (at node 2)
Accepted packet rate average = 0.61106
	minimum = 0.60575 (at node 0)
	maximum = 0.615292 (at node 8)
Injected flit rate average = 0.612417
	minimum = 0.608375 (at node 8)
	maximum = 0.615625 (at node 2)
Accepted flit rate average= 0.61106
	minimum = 0.60575 (at node 0)
	maximum = 0.615292 (at node 8)
Injected packet length average = 1
Accepted packet length average = 1
Total in-flight flits = 317 (317 measured)
====== Peak Queue Occupancy Statistics (Absolute Max) ======
  Overall Max VC Occupancy = 1
  Overall Max Buffer Occupancy = 48
latency change    = 0.0595786
throughput change = 0.0434095
Class 0:
Packet latency average = 47.9536
	minimum = 8
	maximum = 1233
	95th percentile = 182.5
	99th percentile = 417.5
Network latency average = 43.2185
	minimum = 8
	maximum = 1233
	95th percentile = 165.5
	99th percentile = 398.5
Slowest packet = 148738
Flit latency average = 43.2136
	minimum = 8
	maximum = 1233
	95th percentile = 165.5
	99th percentile = 397.5
Slowest flit = 148738
Fragmentation average = 0
	minimum = 0
	maximum = 0
Injected packet rate average = 0.633383
	minimum = 0.629889 (at node 8)
	maximum = 0.635444 (at node 7)
Accepted packet rate average = 0.631753
	minimum = 0.626926 (at node 3)
	maximum = 0.635111 (at node 8)
Injected flit rate average = 0.633383
	minimum = 0.629889 (at node 8)
	maximum = 0.635444 (at node 7)
Accepted flit rate average= 0.631753
	minimum = 0.626926 (at node 3)
	maximum = 0.635111 (at node 8)
Injected packet length average = 1
Accepted packet length average = 1
Total in-flight flits = 421 (421 measured)
====== Peak Queue Occupancy Statistics (Absolute Max) ======
  Overall Max VC Occupancy = 1
  Overall Max Buffer Occupancy = 48
latency change    = 0.0625765
throughput change = 0.0327547
Class 0:
Packet latency average = 52.5323
	minimum = 8
	maximum = 1233
	95th percentile = 208.5
	99th percentile = 449.5
Network latency average = 45.9738
	minimum = 8
	maximum = 1233
	95th percentile = 179.5
	99th percentile = 427.5
Slowest packet = 148738
Flit latency average = 45.9691
	minimum = 8
	maximum = 1233
	95th percentile = 179.5
	99th percentile = 427.5
Slowest flit = 148738
Fragmentation average = 0
	minimum = 0
	maximum = 0
Injected packet rate average = 0.648674
	minimum = 0.6414 (at node 8)
	maximum = 0.6523 (at node 7)
Accepted packet rate average = 0.647341
	minimum = 0.639033 (at node 3)
	maximum = 0.652033 (at node 8)
Injected flit rate average = 0.648674
	minimum = 0.6414 (at node 8)
	maximum = 0.6523 (at node 7)
Accepted flit rate average= 0.647341
	minimum = 0.639033 (at node 3)
	maximum = 0.652033 (at node 8)
Injected packet length average = 1
Accepted packet length average = 1
Total in-flight flits = 384 (384 measured)
====== Peak Queue Occupancy Statistics (Absolute Max) ======
  Overall Max VC Occupancy = 1
  Overall Max Buffer Occupancy = 48
latency change    = 0.0871605
throughput change = 0.0240795
Class 0:
Packet latency average = 56.928
	minimum = 8
	maximum = 1233
	95th percentile = 229.5
	99th percentile = 470.5
Network latency average = 48.0805
	minimum = 8
	maximum = 1233
	95th percentile = 190.5
	99th percentile = 441.5
Slowest packet = 148738
Flit latency average = 48.0761
	minimum = 8
	maximum = 1233
	95th percentile = 190.5
	99th percentile = 441.5
Slowest flit = 148738
Fragmentation average = 0
	minimum = 0
	maximum = 0
Injected packet rate average = 0.662074
	minimum = 0.653909 (at node 8)
	maximum = 0.664939 (at node 7)
Accepted packet rate average = 0.661125
	minimum = 0.652182 (at node 3)
	maximum = 0.664697 (at node 8)
Injected flit rate average = 0.662074
	minimum = 0.653909 (at node 8)
	maximum = 0.664939 (at node 7)
Accepted flit rate average= 0.661125
	minimum = 0.652182 (at node 3)
	maximum = 0.664697 (at node 8)
Injected packet length average = 1
Accepted packet length average = 1
Total in-flight flits = 306 (306 measured)
====== Peak Queue Occupancy Statistics (Absolute Max) ======
  Overall Max VC Occupancy = 1
  Overall Max Buffer Occupancy = 48
latency change    = 0.0772142
throughput change = 0.0208491
Class 0:
Packet latency average = 60.8343
	minimum = 8
	maximum = 1233
	95th percentile = 251.5
	99th percentile = 490.5
Network latency average = 49.8979
	minimum = 8
	maximum = 1233
	95th percentile = 200.5
	99th percentile = 458.5
Slowest packet = 148738
Flit latency average = 49.8937
	minimum = 8
	maximum = 1233
	95th percentile = 200.5
	99th percentile = 458.5
Slowest flit = 148738
Fragmentation average = 0
	minimum = 0
	maximum = 0
Injected packet rate average = 0.673506
	minimum = 0.668222 (at node 8)
	maximum = 0.676333 (at node 7)
Accepted packet rate average = 0.672157
	minimum = 0.666444 (at node 3)
	maximum = 0.676028 (at node 8)
Injected flit rate average = 0.673506
	minimum = 0.668222 (at node 8)
	maximum = 0.676333 (at node 7)
Accepted flit rate average= 0.672157
	minimum = 0.666444 (at node 3)
	maximum = 0.676028 (at node 8)
Injected packet length average = 1
Accepted packet length average = 1
Total in-flight flits = 462 (462 measured)
====== Peak Queue Occupancy Statistics (Absolute Max) ======
  Overall Max VC Occupancy = 1
  Overall Max Buffer Occupancy = 48
latency change    = 0.064212
throughput change = 0.0164141
Class 0:
Packet latency average = 62.9553
	minimum = 8
	maximum = 1391
	95th percentile = 257.5
	99th percentile = 496.5
Network latency average = 51.4905
	minimum = 8
	maximum = 1275
	95th percentile = 208.5
	99th percentile = 464.5
Slowest packet = 220175
Flit latency average = 51.4865
	minimum = 8
	maximum = 1275
	95th percentile = 208.5
	99th percentile = 464.5
Slowest flit = 220175
Fragmentation average = 0
	minimum = 0
	maximum = 0
Injected packet rate average = 0.683427
	minimum = 0.67941 (at node 6)
	maximum = 0.686513 (at node 7)
Accepted packet rate average = 0.682234
	minimum = 0.677333 (at node 0)
	maximum = 0.686282 (at node 8)
Injected flit rate average = 0.683427
	minimum = 0.67941 (at node 6)
	maximum = 0.686513 (at node 7)
Accepted flit rate average= 0.682234
	minimum = 0.677333 (at node 0)
	maximum = 0.686282 (at node 8)
Injected packet length average = 1
Accepted packet length average = 1
Total in-flight flits = 444 (444 measured)
====== Peak Queue Occupancy Statistics (Absolute Max) ======
  Overall Max VC Occupancy = 1
  Overall Max Buffer Occupancy = 48
latency change    = 0.0336914
throughput change = 0.0147694
Class 0:
Packet latency average = 67.8601
	minimum = 8
	maximum = 1391
	95th percentile = 285.5
	99th percentile = 525.5
Network latency average = 52.9739
	minimum = 8
	maximum = 1275
	95th percentile = 216.5
	99th percentile = 474.5
Slowest packet = 220175
Flit latency average = 52.9701
	minimum = 8
	maximum = 1275
	95th percentile = 216.5
	99th percentile = 474.5
Slowest flit = 220175
Fragmentation average = 0
	minimum = 0
	maximum = 0
Injected packet rate average = 0.690881
	minimum = 0.68619 (at node 8)
	maximum = 0.694881 (at node 7)
Accepted packet rate average = 0.689392
	minimum = 0.684214 (at node 3)
	maximum = 0.69469 (at node 8)
Injected flit rate average = 0.690881
	minimum = 0.68619 (at node 8)
	maximum = 0.694881 (at node 7)
Accepted flit rate average= 0.689392
	minimum = 0.684214 (at node 3)
	maximum = 0.69469 (at node 8)
Injected packet length average = 1
Accepted packet length average = 1
Total in-flight flits = 587 (587 measured)
====== Peak Queue Occupancy Statistics (Absolute Max) ======
  Overall Max VC Occupancy = 1
  Overall Max Buffer Occupancy = 48
latency change    = 0.0722777
throughput change = 0.0103829
Class 0:
Packet latency average = 71.4492
	minimum = 8
	maximum = 1391
	95th percentile = 301.5
	99th percentile = 540.5
Network latency average = 54.5023
	minimum = 8
	maximum = 1324
	95th percentile = 223.5
	99th percentile = 487.5
Slowest packet = 220175
Flit latency average = 54.4986
	minimum = 8
	maximum = 1324
	95th percentile = 223.5
	99th percentile = 487.5
Slowest flit = 280909
Fragmentation average = 0
	minimum = 0
	maximum = 0
Injected packet rate average = 0.698973
	minimum = 0.693711 (at node 8)
	maximum = 0.702911 (at node 7)
Accepted packet rate average = 0.698096
	minimum = 0.692222 (at node 3)
	maximum = 0.702733 (at node 8)
Injected flit rate average = 0.698973
	minimum = 0.693711 (at node 8)
	maximum = 0.702911 (at node 7)
Accepted flit rate average= 0.698096
	minimum = 0.692222 (at node 3)
	maximum = 0.702733 (at node 8)
Injected packet length average = 1
Accepted packet length average = 1
Total in-flight flits = 379 (379 measured)
====== Peak Queue Occupancy Statistics (Absolute Max) ======
  Overall Max VC Occupancy = 1
  Overall Max Buffer Occupancy = 48
latency change    = 0.0502334
throughput change = 0.0124693
Class 0:
Packet latency average = 73.4179
	minimum = 8
	maximum = 1669
	95th percentile = 306.5
	99th percentile = 548.5
Network latency average = 55.1634
	minimum = 8
	maximum = 1562
	95th percentile = 224.5
	99th percentile = 495.5
Slowest packet = 294877
Flit latency average = 55.1599
	minimum = 8
	maximum = 1562
	95th percentile = 224.5
	99th percentile = 495.5
Slowest flit = 295384
Fragmentation average = 0
	minimum = 0
	maximum = 0
Injected packet rate average = 0.705331
	minimum = 0.701792 (at node 6)
	maximum = 0.708833 (at node 7)
Accepted packet rate average = 0.704394
	minimum = 0.7005 (at node 0)
	maximum = 0.708688 (at node 8)
Injected flit rate average = 0.705331
	minimum = 0.701792 (at node 6)
	maximum = 0.708833 (at node 7)
Accepted flit rate average= 0.704394
	minimum = 0.7005 (at node 0)
	maximum = 0.708688 (at node 8)
Injected packet length average = 1
Accepted packet length average = 1
Total in-flight flits = 429 (429 measured)
====== Peak Queue Occupancy Statistics (Absolute Max) ======
  Overall Max VC Occupancy = 1
  Overall Max Buffer Occupancy = 48
latency change    = 0.0268151
throughput change = 0.00893992
Draining all recorded packets ...
Draining remaining packets ...
Time taken is 54807 cycles
====== Overall Traffic Statistics ======
====== Traffic class 0 ======
Packet latency average = 73.6677 (1 samples)
	minimum = 8 (1 samples)
	maximum = 1669 (1 samples)
Network latency average = 55.4006 (1 samples)
	minimum = 8 (1 samples)
	maximum = 1562 (1 samples)
Flit latency average = 55.4208 (1 samples)
	minimum = 8 (1 samples)
	maximum = 1562 (1 samples)
Fragmentation average = 0 (1 samples)
	minimum = 0 (1 samples)
	maximum = 0 (1 samples)
Injected packet rate average = 0.705331 (1 samples)
	minimum = 0.701792 (1 samples)
	maximum = 0.708833 (1 samples)
Accepted packet rate average = 0.704394 (1 samples)
	minimum = 0.7005 (1 samples)
	maximum = 0.708688 (1 samples)
Injected flit rate average = 0.705331 (1 samples)
	minimum = 0.701792 (1 samples)
	maximum = 0.708833 (1 samples)
Accepted flit rate average = 0.704394 (1 samples)
	minimum = 0.7005 (1 samples)
	maximum = 0.708688 (1 samples)
Injected packet size average = 1 (1 samples)
Accepted packet size average = 1 (1 samples)
Hops average = 3.36298 (1 samples)
Total run time 16.8747
====== Hybrid Routing Split Statistics ======
XY packets = 132765
Racke packets = 185089
XY fraction = 0.417692
Racke fraction = 0.582308
Flow (0 -> 4) alpha=1 xy_packets=8563 racke_packets=26821 racke_fraction=0.757998
Flow (1 -> 7) alpha=1 xy_packets=8549 racke_packets=26670 racke_fraction=0.757262
Flow (2 -> 6) alpha=1 xy_packets=7585 racke_packets=27859 racke_fraction=0.786
Flow (3 -> 5) alpha=0 xy_packets=25478 racke_packets=9862 racke_fraction=0.279061
Flow (4 -> 1) alpha=1 xy_packets=8644 racke_packets=26674 racke_fraction=0.755252
Flow (5 -> 2) alpha=0.119583 xy_packets=23774 racke_packets=11479 racke_fraction=0.325618
Flow (6 -> 0) alpha=0.770247 xy_packets=13853 racke_packets=21383 racke_fraction=0.606851
Flow (7 -> 8) alpha=0.263675 xy_packets=23118 racke_packets=12335 racke_fraction=0.347925
Flow (8 -> 3) alpha=0.77325 xy_packets=13201 racke_packets=22006 racke_fraction=0.625046
====== Hybrid Routing Window Statistics ======
Window [0,3000) xy_packets=2692 racke_packets=0 xy_fraction=1
Window [3000,6000) xy_packets=5464 racke_packets=0 xy_fraction=1
Window [6000,9000) xy_packets=8012 racke_packets=0 xy_fraction=1
Window [9000,12000) xy_packets=10840 racke_packets=0 xy_fraction=1
Window [12000,15000) xy_packets=13478 racke_packets=121 xy_fraction=0.991102
Window [15000,18000) xy_packets=12359 racke_packets=3893 xy_fraction=0.76046
Window [18000,21000) xy_packets=10641 racke_packets=8297 xy_fraction=0.561886
Window [21000,24000) xy_packets=6860 racke_packets=14639 xy_fraction=0.319085
Window [24000,27000) xy_packets=6859 racke_packets=14823 xy_fraction=0.316345
Window [27000,30000) xy_packets=7211 racke_packets=14249 xy_fraction=0.336021
Window [30000,33000) xy_packets=6393 racke_packets=15238 xy_fraction=0.295548
Window [33000,36000) xy_packets=6606 racke_packets=14623 xy_fraction=0.311178
Window [36000,39000) xy_packets=5276 racke_packets=16218 xy_fraction=0.245464
Window [39000,42000) xy_packets=6395 racke_packets=15186 xy_fraction=0.296325
Window [42000,45000) xy_packets=5951 racke_packets=15716 xy_fraction=0.274657
Window [45000,48000) xy_packets=5541 racke_packets=15728 xy_fraction=0.26052
Window [48000,51000) xy_packets=4247 racke_packets=17684 xy_fraction=0.193653
Window [51000,54000) xy_packets=6210 racke_packets=15409 xy_fraction=0.287247
Window [54000,57000) xy_packets=1730 racke_packets=3265 xy_fraction=0.346346

