BEGIN Configuration File: D:\noc_huawei\noc\booksim2-noc_speedup_study\booksim2-noc_speedup_study\tests\data\results\random_perm_growth_models_perm_p3_peak_0p8\tmp_configs\linear_scale_racke_tree_s2201.config
num_vcs     = 48;
vc_buf_size = 16;
wait_for_tail_credit = 1;

vc_allocator = islip;
sw_allocator = islip;
alloc_iters  = 16;

credit_delay   = 2;
routing_delay  = 0;
vc_alloc_delay = 1;
sw_alloc_delay = 1;
st_final_delay = 1;

input_speedup     = 1;
output_speedup    = 1;
internal_speedup  = 2.0;

sim_type = latency;
latency_thres  = 100000.0;
sim_count      = 1;
queue_sample_period_cycles = 0;

topology = mesh;
k  = 3;
n  = 2;

hybrid_transition_mode = linear_prob;
hybrid_xy_low_threshold = 0.35;
hybrid_racke_high_threshold = 0.65;
hybrid_buffer_soft_threshold = 0.50;
hybrid_buffer_hard_threshold = 0.85;
hybrid_buffer_release_threshold = 0.35;
hybrid_rate_soft_threshold = 0.55;
hybrid_rate_hard_threshold = 0.90;
hybrid_rate_weight = 0.25;
hybrid_congestion_alpha = 0.25;
hybrid_racke_increase_step = 0.25;
hybrid_racke_decrease_step = 0.10;
hybrid_epoch_cycles = 200;
hybrid_hold_cycles = 600;
hybrid_enable_midflight_override = 1;
hybrid_feedback_delay_per_hop = 1;
hybrid_flow_increase_step = 0.20;
hybrid_flow_decrease_step = 0.08;
hybrid_flow_hard_threshold = 0.95;

packet_size = 1;


ordered_injection_coefficients = {0.1666666667,0.3333333333,0.5};
ordered_injection_phase_cycles = {1000,1000,1000};
ordered_injection_source_order = {4,0,7,2,8,1,5,3,6};
ordered_injection_flow_peak_rate = 0.60;
warmup_periods = 2;
custom_perm_array = {4,7,6,5,1,2,0,8,3};
injection_process = scheduled;
injection_rate = 0.8;
scheduled_default_phase_cycles = 3000;
perm_seed = 2201;
hybrid_flow_hotspot_alpha = 0.85;
hybrid_stats_window_cycles = 3000;
hybrid_flow_hotspot_threshold = 1.1;
sample_period = 3000;
scheduled_injection_rates = {0.1,0.2,0.3,0.4,0.5,0.6,0.7,0.8,0.8,0.8};
traffic = custom_perm;
routing_function = racke_tree;
scheduled_phase_cycles = {3000,3000,3000,3000,3000,3000,3000,3000,3000,3000};
seed = 2201;
max_samples = 18;

END Configuration File: D:\noc_huawei\noc\booksim2-noc_speedup_study\booksim2-noc_speedup_study\tests\data\results\random_perm_growth_models_perm_p3_peak_0p8\tmp_configs\linear_scale_racke_tree_s2201.config
Class 0:
Packet latency average = 13.1269
	minimum = 8
	maximum = 24
	95th percentile = 20.5
	99th percentile = 23.5
Network latency average = 13.1269
	minimum = 8
	maximum = 24
	95th percentile = 20.5
	99th percentile = 23.5
Slowest packet = 571
Flit latency average = 13.1269
	minimum = 8
	maximum = 24
	95th percentile = 20.5
	99th percentile = 23.5
Slowest flit = 571
Fragmentation average = 0
	minimum = 0
	maximum = 0
Injected packet rate average = 0.0997037
	minimum = 0.0933333 (at node 4)
	maximum = 0.104667 (at node 6)
Accepted packet rate average = 0.0992593
	minimum = 0.0916667 (at node 1)
	maximum = 0.104667 (at node 0)
Injected flit rate average = 0.0997037
	minimum = 0.0933333 (at node 4)
	maximum = 0.104667 (at node 6)
Accepted flit rate average= 0.0992593
	minimum = 0.0916667 (at node 1)
	maximum = 0.104667 (at node 0)
Injected packet length average = 1
Accepted packet length average = 1
Total in-flight flits = 12 (0 measured)
====== Peak Queue Occupancy Statistics (Absolute Max) ======
  Overall Max VC Occupancy = 1
  Overall Max Buffer Occupancy = 2
latency change    = 1
throughput change = 1
Class 0:
Packet latency average = 13.221
	minimum = 8
	maximum = 26
	95th percentile = 20.5
	99th percentile = 23.5
Network latency average = 13.221
	minimum = 8
	maximum = 26
	95th percentile = 20.5
	99th percentile = 23.5
Slowest packet = 5633
Flit latency average = 13.221
	minimum = 8
	maximum = 26
	95th percentile = 20.5
	99th percentile = 23.5
Slowest flit = 5633
Fragmentation average = 0
	minimum = 0
	maximum = 0
Injected packet rate average = 0.151037
	minimum = 0.146 (at node 5)
	maximum = 0.158833 (at node 1)
Accepted packet rate average = 0.1505
	minimum = 0.1455 (at node 2)
	maximum = 0.158167 (at node 7)
Injected flit rate average = 0.151037
	minimum = 0.146 (at node 5)
	maximum = 0.158833 (at node 1)
Accepted flit rate average= 0.1505
	minimum = 0.1455 (at node 2)
	maximum = 0.158167 (at node 7)
Injected packet length average = 1
Accepted packet length average = 1
Total in-flight flits = 29 (0 measured)
====== Peak Queue Occupancy Statistics (Absolute Max) ======
  Overall Max VC Occupancy = 1
  Overall Max Buffer Occupancy = 2
latency change    = 0.00711944
throughput change = 0.34047
Warmed up ...Time used is 6000 cycles
Class 0:
Packet latency average = 13.3434
	minimum = 8
	maximum = 26
	95th percentile = 20.5
	99th percentile = 23.5
Network latency average = 13.3434
	minimum = 8
	maximum = 26
	95th percentile = 20.5
	99th percentile = 23.5
Slowest packet = 11072
Flit latency average = 13.3473
	minimum = 8
	maximum = 26
	95th percentile = 20.5
	99th percentile = 23.5
Slowest flit = 11072
Fragmentation average = 0
	minimum = 0
	maximum = 0
Injected packet rate average = 0.296741
	minimum = 0.284333 (at node 1)
	maximum = 0.308 (at node 4)
Accepted packet rate average = 0.296481
	minimum = 0.285 (at node 7)
	maximum = 0.306667 (at node 1)
Injected flit rate average = 0.296741
	minimum = 0.284333 (at node 1)
	maximum = 0.308 (at node 4)
Accepted flit rate average= 0.296481
	minimum = 0.285 (at node 7)
	maximum = 0.306667 (at node 1)
Injected packet length average = 1
Accepted packet length average = 1
Total in-flight flits = 36 (36 measured)
====== Peak Queue Occupancy Statistics (Absolute Max) ======
  Overall Max VC Occupancy = 1
  Overall Max Buffer Occupancy = 2
latency change    = 0.00917408
throughput change = 0.49238
Class 0:
Packet latency average = 13.4524
	minimum = 8
	maximum = 27
	95th percentile = 21.5
	99th percentile = 23.5
Network latency average = 13.4524
	minimum = 8
	maximum = 27
	95th percentile = 21.5
	99th percentile = 23.5
Slowest packet = 16194
Flit latency average = 13.4539
	minimum = 8
	maximum = 27
	95th percentile = 21.5
	99th percentile = 23.5
Slowest flit = 16194
Fragmentation average = 0
	minimum = 0
	maximum = 0
Injected packet rate average = 0.349111
	minimum = 0.343167 (at node 1)
	maximum = 0.36 (at node 4)
Accepted packet rate average = 0.348704
	minimum = 0.342833 (at node 2)
	maximum = 0.359333 (at node 1)
Injected flit rate average = 0.349111
	minimum = 0.343167 (at node 1)
	maximum = 0.36 (at node 4)
Accepted flit rate average= 0.348704
	minimum = 0.342833 (at node 2)
	maximum = 0.359333 (at node 1)
Injected packet length average = 1
Accepted packet length average = 1
Total in-flight flits = 51 (51 measured)
====== Peak Queue Occupancy Statistics (Absolute Max) ======
  Overall Max VC Occupancy = 1
  Overall Max Buffer Occupancy = 2
latency change    = 0.00810393
throughput change = 0.149761
Class 0:
Packet latency average = 13.5609
	minimum = 8
	maximum = 28
	95th percentile = 21.5
	99th percentile = 24.5
Network latency average = 13.5609
	minimum = 8
	maximum = 28
	95th percentile = 21.5
	99th percentile = 24.5
Slowest packet = 28087
Flit latency average = 13.5617
	minimum = 8
	maximum = 28
	95th percentile = 21.5
	99th percentile = 24.5
Slowest flit = 28087
Fragmentation average = 0
	minimum = 0
	maximum = 0
Injected packet rate average = 0.400531
	minimum = 0.394111 (at node 8)
	maximum = 0.408 (at node 4)
Accepted packet rate average = 0.400123
	minimum = 0.393556 (at node 3)
	maximum = 0.407444 (at node 1)
Injected flit rate average = 0.400531
	minimum = 0.394111 (at node 8)
	maximum = 0.408 (at node 4)
Accepted flit rate average= 0.400123
	minimum = 0.393556 (at node 3)
	maximum = 0.407444 (at node 1)
Injected packet length average = 1
Accepted packet length average = 1
Total in-flight flits = 62 (62 measured)
====== Peak Queue Occupancy Statistics (Absolute Max) ======
  Overall Max VC Occupancy = 1
  Overall Max Buffer Occupancy = 3
latency change    = 0.00800039
throughput change = 0.12851
Class 0:
Packet latency average = 13.6884
	minimum = 8
	maximum = 28
	95th percentile = 21.5
	99th percentile = 24.5
Network latency average = 13.6884
	minimum = 8
	maximum = 28
	95th percentile = 21.5
	99th percentile = 24.5
Slowest packet = 28087
Flit latency average = 13.6888
	minimum = 8
	maximum = 28
	95th percentile = 21.5
	99th percentile = 24.5
Slowest flit = 28087
Fragmentation average = 0
	minimum = 0
	maximum = 0
Injected packet rate average = 0.450806
	minimum = 0.44575 (at node 1)
	maximum = 0.459167 (at node 4)
Accepted packet rate average = 0.450389
	minimum = 0.445667 (at node 7)
	maximum = 0.459 (at node 1)
Injected flit rate average = 0.450806
	minimum = 0.44575 (at node 1)
	maximum = 0.459167 (at node 4)
Accepted flit rate average= 0.450389
	minimum = 0.445667 (at node 7)
	maximum = 0.459 (at node 1)
Injected packet length average = 1
Accepted packet length average = 1
Total in-flight flits = 74 (74 measured)
====== Peak Queue Occupancy Statistics (Absolute Max) ======
  Overall Max VC Occupancy = 1
  Overall Max Buffer Occupancy = 3
latency change    = 0.00931305
throughput change = 0.111605
Class 0:
Packet latency average = 13.8521
	minimum = 8
	maximum = 29
	95th percentile = 21.5
	99th percentile = 24.5
Network latency average = 13.8521
	minimum = 8
	maximum = 29
	95th percentile = 21.5
	99th percentile = 24.5
Slowest packet = 60586
Flit latency average = 13.8523
	minimum = 8
	maximum = 29
	95th percentile = 21.5
	99th percentile = 24.5
Slowest flit = 60586
Fragmentation average = 0
	minimum = 0
	maximum = 0
Injected packet rate average = 0.500467
	minimum = 0.496667 (at node 1)
	maximum = 0.506467 (at node 4)
Accepted packet rate average = 0.500007
	minimum = 0.496067 (at node 7)
	maximum = 0.506133 (at node 1)
Injected flit rate average = 0.500467
	minimum = 0.496667 (at node 1)
	maximum = 0.506467 (at node 4)
Accepted flit rate average= 0.500007
	minimum = 0.496067 (at node 7)
	maximum = 0.506133 (at node 1)
Injected packet length average = 1
Accepted packet length average = 1
Total in-flight flits = 91 (91 measured)
====== Peak Queue Occupancy Statistics (Absolute Max) ======
  Overall Max VC Occupancy = 1
  Overall Max Buffer Occupancy = 3
latency change    = 0.011817
throughput change = 0.0992356
Class 0:
Packet latency average = 14.0913
	minimum = 8
	maximum = 31
	95th percentile = 22.5
	99th percentile = 25.5
Network latency average = 14.0913
	minimum = 8
	maximum = 31
	95th percentile = 22.5
	99th percentile = 25.5
Slowest packet = 82594
Flit latency average = 14.0915
	minimum = 8
	maximum = 31
	95th percentile = 22.5
	99th percentile = 25.5
Slowest flit = 82594
Fragmentation average = 0
	minimum = 0
	maximum = 0
Injected packet rate average = 0.551198
	minimum = 0.546278 (at node 8)
	maximum = 0.556444 (at node 4)
Accepted packet rate average = 0.550704
	minimum = 0.545722 (at node 3)
	maximum = 0.556056 (at node 1)
Injected flit rate average = 0.551198
	minimum = 0.546278 (at node 8)
	maximum = 0.556444 (at node 4)
Accepted flit rate average= 0.550704
	minimum = 0.545722 (at node 3)
	maximum = 0.556056 (at node 1)
Injected packet length average = 1
Accepted packet length average = 1
Total in-flight flits = 109 (109 measured)
====== Peak Queue Occupancy Statistics (Absolute Max) ======
  Overall Max VC Occupancy = 1
  Overall Max Buffer Occupancy = 3
latency change    = 0.0169794
throughput change = 0.0920573
Class 0:
Packet latency average = 14.2248
	minimum = 8
	maximum = 32
	95th percentile = 22.5
	99th percentile = 25.5
Network latency average = 14.2248
	minimum = 8
	maximum = 32
	95th percentile = 22.5
	99th percentile = 25.5
Slowest packet = 101045
Flit latency average = 14.2248
	minimum = 8
	maximum = 32
	95th percentile = 22.5
	99th percentile = 25.5
Slowest flit = 101045
Fragmentation average = 0
	minimum = 0
	maximum = 0
Injected packet rate average = 0.586598
	minimum = 0.582619 (at node 8)
	maximum = 0.591714 (at node 4)
Accepted packet rate average = 0.586169
	minimum = 0.582048 (at node 3)
	maximum = 0.591286 (at node 1)
Injected flit rate average = 0.586598
	minimum = 0.582619 (at node 8)
	maximum = 0.591714 (at node 4)
Accepted flit rate average= 0.586169
	minimum = 0.582048 (at node 3)
	maximum = 0.591286 (at node 1)
Injected packet length average = 1
Accepted packet length average = 1
Total in-flight flits = 110 (110 measured)
====== Peak Queue Occupancy Statistics (Absolute Max) ======
  Overall Max VC Occupancy = 1
  Overall Max Buffer Occupancy = 3
latency change    = 0.00937829
throughput change = 0.060504
Class 0:
Packet latency average = 14.3266
	minimum = 8
	maximum = 32
	95th percentile = 22.5
	99th percentile = 26.5
Network latency average = 14.3266
	minimum = 8
	maximum = 32
	95th percentile = 22.5
	99th percentile = 26.5
Slowest packet = 101045
Flit latency average = 14.3266
	minimum = 8
	maximum = 32
	95th percentile = 22.5
	99th percentile = 26.5
Slowest flit = 101045
Fragmentation average = 0
	minimum = 0
	maximum = 0
Injected packet rate average = 0.613889
	minimum = 0.610542 (at node 8)
	maximum = 0.617167 (at node 2)
Accepted packet rate average = 0.613528
	minimum = 0.61025 (at node 3)
	maximum = 0.616708 (at node 6)
Injected flit rate average = 0.613889
	minimum = 0.610542 (at node 8)
	maximum = 0.617167 (at node 2)
Accepted flit rate average= 0.613528
	minimum = 0.61025 (at node 3)
	maximum = 0.616708 (at node 6)
Injected packet length average = 1
Accepted packet length average = 1
Total in-flight flits = 107 (107 measured)
====== Peak Queue Occupancy Statistics (Absolute Max) ======
  Overall Max VC Occupancy = 1
  Overall Max Buffer Occupancy = 3
latency change    = 0.0071062
throughput change = 0.0445921
Class 0:
Packet latency average = 14.3865
	minimum = 8
	maximum = 32
	95th percentile = 22.5
	99th percentile = 26.5
Network latency average = 14.3865
	minimum = 8
	maximum = 32
	95th percentile = 22.5
	99th percentile = 26.5
Slowest packet = 101045
Flit latency average = 14.3865
	minimum = 8
	maximum = 32
	95th percentile = 22.5
	99th percentile = 26.5
Slowest flit = 101045
Fragmentation average = 0
	minimum = 0
	maximum = 0
Injected packet rate average = 0.634626
	minimum = 0.630778 (at node 8)
	maximum = 0.637963 (at node 2)
Accepted packet rate average = 0.634284
	minimum = 0.630519 (at node 3)
	maximum = 0.637556 (at node 6)
Injected flit rate average = 0.634626
	minimum = 0.630778 (at node 8)
	maximum = 0.637963 (at node 2)
Accepted flit rate average= 0.634284
	minimum = 0.630519 (at node 3)
	maximum = 0.637556 (at node 6)
Injected packet length average = 1
Accepted packet length average = 1
Total in-flight flits = 112 (112 measured)
====== Peak Queue Occupancy Statistics (Absolute Max) ======
  Overall Max VC Occupancy = 1
  Overall Max Buffer Occupancy = 3
latency change    = 0.00416482
throughput change = 0.0327238
Class 0:
Packet latency average = 14.4373
	minimum = 8
	maximum = 33
	95th percentile = 22.5
	99th percentile = 26.5
Network latency average = 14.4373
	minimum = 8
	maximum = 33
	95th percentile = 22.5
	99th percentile = 26.5
Slowest packet = 170784
Flit latency average = 14.4373
	minimum = 8
	maximum = 33
	95th percentile = 22.5
	99th percentile = 26.5
Slowest flit = 170784
Fragmentation average = 0
	minimum = 0
	maximum = 0
Injected packet rate average = 0.651156
	minimum = 0.648333 (at node 8)
	maximum = 0.653967 (at node 2)
Accepted packet rate average = 0.650848
	minimum = 0.6479 (at node 3)
	maximum = 0.6537 (at node 6)
Injected flit rate average = 0.651156
	minimum = 0.648333 (at node 8)
	maximum = 0.653967 (at node 2)
Accepted flit rate average= 0.650848
	minimum = 0.6479 (at node 3)
	maximum = 0.6537 (at node 6)
Injected packet length average = 1
Accepted packet length average = 1
Total in-flight flits = 112 (112 measured)
====== Peak Queue Occupancy Statistics (Absolute Max) ======
  Overall Max VC Occupancy = 1
  Overall Max Buffer Occupancy = 3
latency change    = 0.00351761
throughput change = 0.0254502
Draining all recorded packets ...
Draining remaining packets ...
Time taken is 36050 cycles
====== Overall Traffic Statistics ======
====== Traffic class 0 ======
Packet latency average = 14.438 (1 samples)
	minimum = 8 (1 samples)
	maximum = 33 (1 samples)
Network latency average = 14.438 (1 samples)
	minimum = 8 (1 samples)
	maximum = 33 (1 samples)
Flit latency average = 14.4386 (1 samples)
	minimum = 8 (1 samples)
	maximum = 33 (1 samples)
Fragmentation average = 0 (1 samples)
	minimum = 0 (1 samples)
	maximum = 0 (1 samples)
Injected packet rate average = 0.651156 (1 samples)
	minimum = 0.648333 (1 samples)
	maximum = 0.653967 (1 samples)
Accepted packet rate average = 0.650848 (1 samples)
	minimum = 0.6479 (1 samples)
	maximum = 0.6537 (1 samples)
Injected flit rate average = 0.651156 (1 samples)
	minimum = 0.648333 (1 samples)
	maximum = 0.653967 (1 samples)
Accepted flit rate average = 0.650848 (1 samples)
	minimum = 0.6479 (1 samples)
	maximum = 0.6537 (1 samples)
Injected packet size average = 1 (1 samples)
Accepted packet size average = 1 (1 samples)
Hops average = 3.66703 (1 samples)
Total run time 6.14808

