BEGIN Configuration File: D:\noc_huawei\noc\booksim2-noc_speedup_study\booksim2-noc_speedup_study\tests\data\results\random_perm_growth_models_perm_p3_peak_0p8\tmp_configs\linear_scale_racke_tree_s2202.config
num_vcs     = 48;
vc_buf_size = 16;
wait_for_tail_credit = 1;

vc_allocator = islip;
sw_allocator = islip;
alloc_iters  = 16;

credit_delay   = 2;
routing_delay  = 0;
vc_alloc_delay = 1;
sw_alloc_delay = 1;
st_final_delay = 1;

input_speedup     = 1;
output_speedup    = 1;
internal_speedup  = 2.0;

sim_type = latency;
latency_thres  = 100000.0;
sim_count      = 1;
queue_sample_period_cycles = 0;

topology = mesh;
k  = 3;
n  = 2;

hybrid_transition_mode = linear_prob;
hybrid_xy_low_threshold = 0.35;
hybrid_racke_high_threshold = 0.65;
hybrid_buffer_soft_threshold = 0.50;
hybrid_buffer_hard_threshold = 0.85;
hybrid_buffer_release_threshold = 0.35;
hybrid_rate_soft_threshold = 0.55;
hybrid_rate_hard_threshold = 0.90;
hybrid_rate_weight = 0.25;
hybrid_congestion_alpha = 0.25;
hybrid_racke_increase_step = 0.25;
hybrid_racke_decrease_step = 0.10;
hybrid_epoch_cycles = 200;
hybrid_hold_cycles = 600;
hybrid_enable_midflight_override = 1;
hybrid_feedback_delay_per_hop = 1;
hybrid_flow_increase_step = 0.20;
hybrid_flow_decrease_step = 0.08;
hybrid_flow_hard_threshold = 0.95;

packet_size = 1;


ordered_injection_coefficients = {0.1666666667,0.3333333333,0.5};
ordered_injection_phase_cycles = {1000,1000,1000};
ordered_injection_source_order = {4,0,7,2,8,1,5,3,6};
ordered_injection_flow_peak_rate = 0.60;
warmup_periods = 2;
custom_perm_array = {4,7,6,5,1,2,0,8,3};
injection_process = scheduled;
injection_rate = 0.8;
scheduled_default_phase_cycles = 3000;
perm_seed = 2202;
hybrid_flow_hotspot_alpha = 0.85;
hybrid_stats_window_cycles = 3000;
hybrid_flow_hotspot_threshold = 1.1;
sample_period = 3000;
scheduled_injection_rates = {0.1,0.2,0.3,0.4,0.5,0.6,0.7,0.8,0.8,0.8};
traffic = custom_perm;
routing_function = racke_tree;
scheduled_phase_cycles = {3000,3000,3000,3000,3000,3000,3000,3000,3000,3000};
seed = 2202;
max_samples = 18;

END Configuration File: D:\noc_huawei\noc\booksim2-noc_speedup_study\booksim2-noc_speedup_study\tests\data\results\random_perm_growth_models_perm_p3_peak_0p8\tmp_configs\linear_scale_racke_tree_s2202.config
Class 0:
Packet latency average = 13.052
	minimum = 8
	maximum = 24
	95th percentile = 20.5
	99th percentile = 23.5
Network latency average = 13.052
	minimum = 8
	maximum = 24
	95th percentile = 20.5
	99th percentile = 23.5
Slowest packet = 67
Flit latency average = 13.052
	minimum = 8
	maximum = 24
	95th percentile = 20.5
	99th percentile = 23.5
Slowest flit = 67
Fragmentation average = 0
	minimum = 0
	maximum = 0
Injected packet rate average = 0.100704
	minimum = 0.0906667 (at node 1)
	maximum = 0.108333 (at node 7)
Accepted packet rate average = 0.100407
	minimum = 0.0906667 (at node 7)
	maximum = 0.107667 (at node 8)
Injected flit rate average = 0.100704
	minimum = 0.0906667 (at node 1)
	maximum = 0.108333 (at node 7)
Accepted flit rate average= 0.100407
	minimum = 0.0906667 (at node 7)
	maximum = 0.107667 (at node 8)
Injected packet length average = 1
Accepted packet length average = 1
Total in-flight flits = 8 (0 measured)
====== Peak Queue Occupancy Statistics (Absolute Max) ======
  Overall Max VC Occupancy = 1
  Overall Max Buffer Occupancy = 2
latency change    = 1
throughput change = 1
Class 0:
Packet latency average = 13.1607
	minimum = 8
	maximum = 26
	95th percentile = 20.5
	99th percentile = 23.5
Network latency average = 13.1607
	minimum = 8
	maximum = 26
	95th percentile = 20.5
	99th percentile = 23.5
Slowest packet = 5869
Flit latency average = 13.1607
	minimum = 8
	maximum = 26
	95th percentile = 20.5
	99th percentile = 23.5
Slowest flit = 5869
Fragmentation average = 0
	minimum = 0
	maximum = 0
Injected packet rate average = 0.149667
	minimum = 0.140833 (at node 1)
	maximum = 0.158667 (at node 7)
Accepted packet rate average = 0.149259
	minimum = 0.140333 (at node 7)
	maximum = 0.158667 (at node 8)
Injected flit rate average = 0.149667
	minimum = 0.140833 (at node 1)
	maximum = 0.158667 (at node 7)
Accepted flit rate average= 0.149259
	minimum = 0.140333 (at node 7)
	maximum = 0.158667 (at node 8)
Injected packet length average = 1
Accepted packet length average = 1
Total in-flight flits = 22 (0 measured)
====== Peak Queue Occupancy Statistics (Absolute Max) ======
  Overall Max VC Occupancy = 1
  Overall Max Buffer Occupancy = 2
latency change    = 0.00825639
throughput change = 0.327295
Warmed up ...Time used is 6000 cycles
Class 0:
Packet latency average = 13.3436
	minimum = 8
	maximum = 27
	95th percentile = 20.5
	99th percentile = 23.5
Network latency average = 13.3436
	minimum = 8
	maximum = 27
	95th percentile = 20.5
	99th percentile = 23.5
Slowest packet = 14068
Flit latency average = 13.3445
	minimum = 8
	maximum = 27
	95th percentile = 20.5
	99th percentile = 23.5
Slowest flit = 14068
Fragmentation average = 0
	minimum = 0
	maximum = 0
Injected packet rate average = 0.301259
	minimum = 0.291667 (at node 2)
	maximum = 0.311333 (at node 6)
Accepted packet rate average = 0.300889
	minimum = 0.290667 (at node 6)
	maximum = 0.311 (at node 0)
Injected flit rate average = 0.301259
	minimum = 0.291667 (at node 2)
	maximum = 0.311333 (at node 6)
Accepted flit rate average= 0.300889
	minimum = 0.290667 (at node 6)
	maximum = 0.311 (at node 0)
Injected packet length average = 1
Accepted packet length average = 1
Total in-flight flits = 32 (32 measured)
====== Peak Queue Occupancy Statistics (Absolute Max) ======
  Overall Max VC Occupancy = 1
  Overall Max Buffer Occupancy = 2
latency change    = 0.0137106
throughput change = 0.503939
Class 0:
Packet latency average = 13.4316
	minimum = 8
	maximum = 28
	95th percentile = 20.5
	99th percentile = 23.5
Network latency average = 13.4316
	minimum = 8
	maximum = 28
	95th percentile = 20.5
	99th percentile = 23.5
Slowest packet = 24806
Flit latency average = 13.4319
	minimum = 8
	maximum = 28
	95th percentile = 20.5
	99th percentile = 23.5
Slowest flit = 24806
Fragmentation average = 0
	minimum = 0
	maximum = 0
Injected packet rate average = 0.350111
	minimum = 0.340833 (at node 2)
	maximum = 0.3595 (at node 3)
Accepted packet rate average = 0.3495
	minimum = 0.3395 (at node 6)
	maximum = 0.359167 (at node 5)
Injected flit rate average = 0.350111
	minimum = 0.340833 (at node 2)
	maximum = 0.3595 (at node 3)
Accepted flit rate average= 0.3495
	minimum = 0.3395 (at node 6)
	maximum = 0.359167 (at node 5)
Injected packet length average = 1
Accepted packet length average = 1
Total in-flight flits = 55 (55 measured)
====== Peak Queue Occupancy Statistics (Absolute Max) ======
  Overall Max VC Occupancy = 1
  Overall Max Buffer Occupancy = 2
latency change    = 0.00654995
throughput change = 0.139088
Class 0:
Packet latency average = 13.5488
	minimum = 8
	maximum = 29
	95th percentile = 21.5
	99th percentile = 24.5
Network latency average = 13.5488
	minimum = 8
	maximum = 29
	95th percentile = 21.5
	99th percentile = 24.5
Slowest packet = 31694
Flit latency average = 13.5488
	minimum = 8
	maximum = 29
	95th percentile = 21.5
	99th percentile = 24.5
Slowest flit = 31694
Fragmentation average = 0
	minimum = 0
	maximum = 0
Injected packet rate average = 0.400457
	minimum = 0.392111 (at node 1)
	maximum = 0.409556 (at node 3)
Accepted packet rate average = 0.400099
	minimum = 0.392 (at node 7)
	maximum = 0.409667 (at node 5)
Injected flit rate average = 0.400457
	minimum = 0.392111 (at node 1)
	maximum = 0.409556 (at node 3)
Accepted flit rate average= 0.400099
	minimum = 0.392 (at node 7)
	maximum = 0.409667 (at node 5)
Injected packet length average = 1
Accepted packet length average = 1
Total in-flight flits = 51 (51 measured)
====== Peak Queue Occupancy Statistics (Absolute Max) ======
  Overall Max VC Occupancy = 1
  Overall Max Buffer Occupancy = 2
latency change    = 0.00864733
throughput change = 0.126466
Class 0:
Packet latency average = 13.6774
	minimum = 8
	maximum = 31
	95th percentile = 21.5
	99th percentile = 24.5
Network latency average = 13.6774
	minimum = 8
	maximum = 31
	95th percentile = 21.5
	99th percentile = 24.5
Slowest packet = 53633
Flit latency average = 13.6774
	minimum = 8
	maximum = 31
	95th percentile = 21.5
	99th percentile = 24.5
Slowest flit = 53633
Fragmentation average = 0
	minimum = 0
	maximum = 0
Injected packet rate average = 0.449593
	minimum = 0.438833 (at node 2)
	maximum = 0.45625 (at node 3)
Accepted packet rate average = 0.449102
	minimum = 0.437917 (at node 6)
	maximum = 0.455833 (at node 5)
Injected flit rate average = 0.449593
	minimum = 0.438833 (at node 2)
	maximum = 0.45625 (at node 3)
Accepted flit rate average= 0.449102
	minimum = 0.437917 (at node 6)
	maximum = 0.455833 (at node 5)
Injected packet length average = 1
Accepted packet length average = 1
Total in-flight flits = 75 (75 measured)
====== Peak Queue Occupancy Statistics (Absolute Max) ======
  Overall Max VC Occupancy = 1
  Overall Max Buffer Occupancy = 2
latency change    = 0.00940258
throughput change = 0.109114
Class 0:
Packet latency average = 13.8308
	minimum = 8
	maximum = 31
	95th percentile = 21.5
	99th percentile = 24.5
Network latency average = 13.8308
	minimum = 8
	maximum = 31
	95th percentile = 21.5
	99th percentile = 24.5
Slowest packet = 53633
Flit latency average = 13.8307
	minimum = 8
	maximum = 31
	95th percentile = 21.5
	99th percentile = 24.5
Slowest flit = 53633
Fragmentation average = 0
	minimum = 0
	maximum = 0
Injected packet rate average = 0.49877
	minimum = 0.490533 (at node 2)
	maximum = 0.503 (at node 3)
Accepted packet rate average = 0.498237
	minimum = 0.489733 (at node 6)
	maximum = 0.5026 (at node 5)
Injected flit rate average = 0.49877
	minimum = 0.490533 (at node 2)
	maximum = 0.503 (at node 3)
Accepted flit rate average= 0.498237
	minimum = 0.489733 (at node 6)
	maximum = 0.5026 (at node 5)
Injected packet length average = 1
Accepted packet length average = 1
Total in-flight flits = 94 (94 measured)
====== Peak Queue Occupancy Statistics (Absolute Max) ======
  Overall Max VC Occupancy = 1
  Overall Max Buffer Occupancy = 2
latency change    = 0.0110932
throughput change = 0.0986181
Class 0:
Packet latency average = 14.0585
	minimum = 8
	maximum = 31
	95th percentile = 22.5
	99th percentile = 25.5
Network latency average = 14.0585
	minimum = 8
	maximum = 31
	95th percentile = 22.5
	99th percentile = 25.5
Slowest packet = 53633
Flit latency average = 14.0584
	minimum = 8
	maximum = 31
	95th percentile = 22.5
	99th percentile = 25.5
Slowest flit = 53633
Fragmentation average = 0
	minimum = 0
	maximum = 0
Injected packet rate average = 0.549321
	minimum = 0.541056 (at node 2)
	maximum = 0.553833 (at node 3)
Accepted packet rate average = 0.548759
	minimum = 0.540111 (at node 6)
	maximum = 0.553333 (at node 5)
Injected flit rate average = 0.549321
	minimum = 0.541056 (at node 2)
	maximum = 0.553833 (at node 3)
Accepted flit rate average= 0.548759
	minimum = 0.540111 (at node 6)
	maximum = 0.553333 (at node 5)
Injected packet length average = 1
Accepted packet length average = 1
Total in-flight flits = 113 (113 measured)
====== Peak Queue Occupancy Statistics (Absolute Max) ======
  Overall Max VC Occupancy = 1
  Overall Max Buffer Occupancy = 3
latency change    = 0.0161958
throughput change = 0.0920663
Class 0:
Packet latency average = 14.1956
	minimum = 8
	maximum = 31
	95th percentile = 22.5
	99th percentile = 25.5
Network latency average = 14.1956
	minimum = 8
	maximum = 31
	95th percentile = 22.5
	99th percentile = 25.5
Slowest packet = 53633
Flit latency average = 14.1954
	minimum = 8
	maximum = 31
	95th percentile = 22.5
	99th percentile = 25.5
Slowest flit = 53633
Fragmentation average = 0
	minimum = 0
	maximum = 0
Injected packet rate average = 0.584841
	minimum = 0.577619 (at node 1)
	maximum = 0.589333 (at node 8)
Accepted packet rate average = 0.584413
	minimum = 0.577143 (at node 7)
	maximum = 0.58881 (at node 3)
Injected flit rate average = 0.584841
	minimum = 0.577619 (at node 1)
	maximum = 0.589333 (at node 8)
Accepted flit rate average= 0.584413
	minimum = 0.577143 (at node 7)
	maximum = 0.58881 (at node 3)
Injected packet length average = 1
Accepted packet length average = 1
Total in-flight flits = 103 (103 measured)
====== Peak Queue Occupancy Statistics (Absolute Max) ======
  Overall Max VC Occupancy = 1
  Overall Max Buffer Occupancy = 3
latency change    = 0.00965627
throughput change = 0.0610073
Class 0:
Packet latency average = 14.2847
	minimum = 8
	maximum = 31
	95th percentile = 22.5
	99th percentile = 25.5
Network latency average = 14.2847
	minimum = 8
	maximum = 31
	95th percentile = 22.5
	99th percentile = 25.5
Slowest packet = 53633
Flit latency average = 14.2846
	minimum = 8
	maximum = 31
	95th percentile = 22.5
	99th percentile = 25.5
Slowest flit = 53633
Fragmentation average = 0
	minimum = 0
	maximum = 0
Injected packet rate average = 0.611588
	minimum = 0.605167 (at node 1)
	maximum = 0.617208 (at node 3)
Accepted packet rate average = 0.611199
	minimum = 0.604792 (at node 7)
	maximum = 0.616833 (at node 5)
Injected flit rate average = 0.611588
	minimum = 0.605167 (at node 1)
	maximum = 0.617208 (at node 3)
Accepted flit rate average= 0.611199
	minimum = 0.604792 (at node 7)
	maximum = 0.616833 (at node 5)
Injected packet length average = 1
Accepted packet length average = 1
Total in-flight flits = 106 (106 measured)
====== Peak Queue Occupancy Statistics (Absolute Max) ======
  Overall Max VC Occupancy = 1
  Overall Max Buffer Occupancy = 3
latency change    = 0.00623853
throughput change = 0.0438259
Class 0:
Packet latency average = 14.3426
	minimum = 8
	maximum = 31
	95th percentile = 22.5
	99th percentile = 26.5
Network latency average = 14.3426
	minimum = 8
	maximum = 31
	95th percentile = 22.5
	99th percentile = 26.5
Slowest packet = 53633
Flit latency average = 14.3425
	minimum = 8
	maximum = 31
	95th percentile = 22.5
	99th percentile = 26.5
Slowest flit = 53633
Fragmentation average = 0
	minimum = 0
	maximum = 0
Injected packet rate average = 0.631934
	minimum = 0.625333 (at node 1)
	maximum = 0.636667 (at node 3)
Accepted packet rate average = 0.631588
	minimum = 0.625 (at node 7)
	maximum = 0.636481 (at node 5)
Injected flit rate average = 0.631934
	minimum = 0.625333 (at node 1)
	maximum = 0.636667 (at node 3)
Accepted flit rate average= 0.631588
	minimum = 0.625 (at node 7)
	maximum = 0.636481 (at node 5)
Injected packet length average = 1
Accepted packet length average = 1
Total in-flight flits = 106 (106 measured)
====== Peak Queue Occupancy Statistics (Absolute Max) ======
  Overall Max VC Occupancy = 1
  Overall Max Buffer Occupancy = 3
latency change    = 0.00404053
throughput change = 0.0322827
Class 0:
Packet latency average = 14.3921
	minimum = 8
	maximum = 31
	95th percentile = 22.5
	99th percentile = 26.5
Network latency average = 14.3921
	minimum = 8
	maximum = 31
	95th percentile = 22.5
	99th percentile = 26.5
Slowest packet = 53633
Flit latency average = 14.392
	minimum = 8
	maximum = 31
	95th percentile = 22.5
	99th percentile = 26.5
Slowest flit = 53633
Fragmentation average = 0
	minimum = 0
	maximum = 0
Injected packet rate average = 0.648644
	minimum = 0.642367 (at node 1)
	maximum = 0.6525 (at node 3)
Accepted packet rate average = 0.648385
	minimum = 0.642133 (at node 7)
	maximum = 0.6523 (at node 5)
Injected flit rate average = 0.648644
	minimum = 0.642367 (at node 1)
	maximum = 0.6525 (at node 3)
Accepted flit rate average= 0.648385
	minimum = 0.642133 (at node 7)
	maximum = 0.6523 (at node 5)
Injected packet length average = 1
Accepted packet length average = 1
Total in-flight flits = 92 (92 measured)
====== Peak Queue Occupancy Statistics (Absolute Max) ======
  Overall Max VC Occupancy = 1
  Overall Max Buffer Occupancy = 3
latency change    = 0.00344057
throughput change = 0.0259054
Draining all recorded packets ...
Draining remaining packets ...
Time taken is 36047 cycles
====== Overall Traffic Statistics ======
====== Traffic class 0 ======
Packet latency average = 14.3932 (1 samples)
	minimum = 8 (1 samples)
	maximum = 31 (1 samples)
Network latency average = 14.3932 (1 samples)
	minimum = 8 (1 samples)
	maximum = 31 (1 samples)
Flit latency average = 14.3934 (1 samples)
	minimum = 8 (1 samples)
	maximum = 31 (1 samples)
Fragmentation average = 0 (1 samples)
	minimum = 0 (1 samples)
	maximum = 0 (1 samples)
Injected packet rate average = 0.648644 (1 samples)
	minimum = 0.642367 (1 samples)
	maximum = 0.6525 (1 samples)
Accepted packet rate average = 0.648385 (1 samples)
	minimum = 0.642133 (1 samples)
	maximum = 0.6523 (1 samples)
Injected flit rate average = 0.648644 (1 samples)
	minimum = 0.642367 (1 samples)
	maximum = 0.6525 (1 samples)
Accepted flit rate average = 0.648385 (1 samples)
	minimum = 0.642133 (1 samples)
	maximum = 0.6523 (1 samples)
Injected packet size average = 1 (1 samples)
Accepted packet size average = 1 (1 samples)
Hops average = 3.66544 (1 samples)
Total run time 6.30143

