BEGIN Configuration File: D:\noc_huawei\noc\booksim2-noc_speedup_study\booksim2-noc_speedup_study\tests\data\results\random_perm_growth_models_perm_p3_peak_0p8\tmp_configs\linear_scale_racke_tree_s2203.config
num_vcs     = 48;
vc_buf_size = 16;
wait_for_tail_credit = 1;

vc_allocator = islip;
sw_allocator = islip;
alloc_iters  = 16;

credit_delay   = 2;
routing_delay  = 0;
vc_alloc_delay = 1;
sw_alloc_delay = 1;
st_final_delay = 1;

input_speedup     = 1;
output_speedup    = 1;
internal_speedup  = 2.0;

sim_type = latency;
latency_thres  = 100000.0;
sim_count      = 1;
queue_sample_period_cycles = 0;

topology = mesh;
k  = 3;
n  = 2;

hybrid_transition_mode = linear_prob;
hybrid_xy_low_threshold = 0.35;
hybrid_racke_high_threshold = 0.65;
hybrid_buffer_soft_threshold = 0.50;
hybrid_buffer_hard_threshold = 0.85;
hybrid_buffer_release_threshold = 0.35;
hybrid_rate_soft_threshold = 0.55;
hybrid_rate_hard_threshold = 0.90;
hybrid_rate_weight = 0.25;
hybrid_congestion_alpha = 0.25;
hybrid_racke_increase_step = 0.25;
hybrid_racke_decrease_step = 0.10;
hybrid_epoch_cycles = 200;
hybrid_hold_cycles = 600;
hybrid_enable_midflight_override = 1;
hybrid_feedback_delay_per_hop = 1;
hybrid_flow_increase_step = 0.20;
hybrid_flow_decrease_step = 0.08;
hybrid_flow_hard_threshold = 0.95;

packet_size = 1;


ordered_injection_coefficients = {0.1666666667,0.3333333333,0.5};
ordered_injection_phase_cycles = {1000,1000,1000};
ordered_injection_source_order = {4,0,7,2,8,1,5,3,6};
ordered_injection_flow_peak_rate = 0.60;
warmup_periods = 2;
custom_perm_array = {4,7,6,5,1,2,0,8,3};
injection_process = scheduled;
injection_rate = 0.8;
scheduled_default_phase_cycles = 3000;
perm_seed = 2203;
hybrid_flow_hotspot_alpha = 0.85;
hybrid_stats_window_cycles = 3000;
hybrid_flow_hotspot_threshold = 1.1;
sample_period = 3000;
scheduled_injection_rates = {0.1,0.2,0.3,0.4,0.5,0.6,0.7,0.8,0.8,0.8};
traffic = custom_perm;
routing_function = racke_tree;
scheduled_phase_cycles = {3000,3000,3000,3000,3000,3000,3000,3000,3000,3000};
seed = 2203;
max_samples = 18;

END Configuration File: D:\noc_huawei\noc\booksim2-noc_speedup_study\booksim2-noc_speedup_study\tests\data\results\random_perm_growth_models_perm_p3_peak_0p8\tmp_configs\linear_scale_racke_tree_s2203.config
Class 0:
Packet latency average = 13.0571
	minimum = 8
	maximum = 24
	95th percentile = 20.5
	99th percentile = 23.5
Network latency average = 13.0571
	minimum = 8
	maximum = 24
	95th percentile = 20.5
	99th percentile = 23.5
Slowest packet = 1161
Flit latency average = 13.0571
	minimum = 8
	maximum = 24
	95th percentile = 20.5
	99th percentile = 23.5
Slowest flit = 1161
Fragmentation average = 0
	minimum = 0
	maximum = 0
Injected packet rate average = 0.10037
	minimum = 0.0946667 (at node 2)
	maximum = 0.110667 (at node 6)
Accepted packet rate average = 0.0998519
	minimum = 0.0943333 (at node 6)
	maximum = 0.11 (at node 0)
Injected flit rate average = 0.10037
	minimum = 0.0946667 (at node 2)
	maximum = 0.110667 (at node 6)
Accepted flit rate average= 0.0998519
	minimum = 0.0943333 (at node 6)
	maximum = 0.11 (at node 0)
Injected packet length average = 1
Accepted packet length average = 1
Total in-flight flits = 14 (0 measured)
====== Peak Queue Occupancy Statistics (Absolute Max) ======
  Overall Max VC Occupancy = 1
  Overall Max Buffer Occupancy = 2
latency change    = 1
throughput change = 1
Class 0:
Packet latency average = 13.1615
	minimum = 8
	maximum = 25
	95th percentile = 20.5
	99th percentile = 23.5
Network latency average = 13.1615
	minimum = 8
	maximum = 25
	95th percentile = 20.5
	99th percentile = 23.5
Slowest packet = 6239
Flit latency average = 13.1615
	minimum = 8
	maximum = 25
	95th percentile = 20.5
	99th percentile = 23.5
Slowest flit = 6239
Fragmentation average = 0
	minimum = 0
	maximum = 0
Injected packet rate average = 0.149889
	minimum = 0.1445 (at node 2)
	maximum = 0.154833 (at node 7)
Accepted packet rate average = 0.149333
	minimum = 0.144333 (at node 6)
	maximum = 0.154 (at node 5)
Injected flit rate average = 0.149889
	minimum = 0.1445 (at node 2)
	maximum = 0.154833 (at node 7)
Accepted flit rate average= 0.149333
	minimum = 0.144333 (at node 6)
	maximum = 0.154 (at node 5)
Injected packet length average = 1
Accepted packet length average = 1
Total in-flight flits = 30 (0 measured)
====== Peak Queue Occupancy Statistics (Absolute Max) ======
  Overall Max VC Occupancy = 1
  Overall Max Buffer Occupancy = 2
latency change    = 0.00792744
throughput change = 0.331349
Warmed up ...Time used is 6000 cycles
Class 0:
Packet latency average = 13.3612
	minimum = 8
	maximum = 26
	95th percentile = 20.5
	99th percentile = 23.5
Network latency average = 13.3612
	minimum = 8
	maximum = 26
	95th percentile = 20.5
	99th percentile = 23.5
Slowest packet = 8636
Flit latency average = 13.3652
	minimum = 8
	maximum = 26
	95th percentile = 20.5
	99th percentile = 23.5
Slowest flit = 8636
Fragmentation average = 0
	minimum = 0
	maximum = 0
Injected packet rate average = 0.302556
	minimum = 0.293 (at node 3)
	maximum = 0.312 (at node 5)
Accepted packet rate average = 0.302333
	minimum = 0.293 (at node 5)
	maximum = 0.313 (at node 3)
Injected flit rate average = 0.302556
	minimum = 0.293 (at node 3)
	maximum = 0.312 (at node 5)
Accepted flit rate average= 0.302333
	minimum = 0.293 (at node 5)
	maximum = 0.313 (at node 3)
Injected packet length average = 1
Accepted packet length average = 1
Total in-flight flits = 36 (36 measured)
====== Peak Queue Occupancy Statistics (Absolute Max) ======
  Overall Max VC Occupancy = 1
  Overall Max Buffer Occupancy = 2
latency change    = 0.0149526
throughput change = 0.506064
Class 0:
Packet latency average = 13.4576
	minimum = 8
	maximum = 28
	95th percentile = 20.5
	99th percentile = 23.5
Network latency average = 13.4576
	minimum = 8
	maximum = 28
	95th percentile = 20.5
	99th percentile = 23.5
Slowest packet = 21972
Flit latency average = 13.4591
	minimum = 8
	maximum = 28
	95th percentile = 20.5
	99th percentile = 23.5
Slowest flit = 21972
Fragmentation average = 0
	minimum = 0
	maximum = 0
Injected packet rate average = 0.349444
	minimum = 0.3455 (at node 5)
	maximum = 0.354833 (at node 7)
Accepted packet rate average = 0.349204
	minimum = 0.344833 (at node 2)
	maximum = 0.355833 (at node 8)
Injected flit rate average = 0.349444
	minimum = 0.3455 (at node 5)
	maximum = 0.354833 (at node 7)
Accepted flit rate average= 0.349204
	minimum = 0.344833 (at node 2)
	maximum = 0.355833 (at node 8)
Injected packet length average = 1
Accepted packet length average = 1
Total in-flight flits = 43 (43 measured)
====== Peak Queue Occupancy Statistics (Absolute Max) ======
  Overall Max VC Occupancy = 1
  Overall Max Buffer Occupancy = 2
latency change    = 0.00715902
throughput change = 0.134221
Class 0:
Packet latency average = 13.5695
	minimum = 8
	maximum = 30
	95th percentile = 21.5
	99th percentile = 24.5
Network latency average = 13.5695
	minimum = 8
	maximum = 30
	95th percentile = 21.5
	99th percentile = 24.5
Slowest packet = 31876
Flit latency average = 13.5703
	minimum = 8
	maximum = 30
	95th percentile = 21.5
	99th percentile = 24.5
Slowest flit = 31876
Fragmentation average = 0
	minimum = 0
	maximum = 0
Injected packet rate average = 0.399679
	minimum = 0.395111 (at node 6)
	maximum = 0.402333 (at node 2)
Accepted packet rate average = 0.399284
	minimum = 0.394667 (at node 0)
	maximum = 0.401667 (at node 6)
Injected flit rate average = 0.399679
	minimum = 0.395111 (at node 6)
	maximum = 0.402333 (at node 2)
Accepted flit rate average= 0.399284
	minimum = 0.394667 (at node 0)
	maximum = 0.401667 (at node 6)
Injected packet length average = 1
Accepted packet length average = 1
Total in-flight flits = 62 (62 measured)
====== Peak Queue Occupancy Statistics (Absolute Max) ======
  Overall Max VC Occupancy = 1
  Overall Max Buffer Occupancy = 2
latency change    = 0.00824581
throughput change = 0.125425
Class 0:
Packet latency average = 13.7056
	minimum = 8
	maximum = 30
	95th percentile = 21.5
	99th percentile = 24.5
Network latency average = 13.7056
	minimum = 8
	maximum = 30
	95th percentile = 21.5
	99th percentile = 24.5
Slowest packet = 31876
Flit latency average = 13.7061
	minimum = 8
	maximum = 30
	95th percentile = 21.5
	99th percentile = 24.5
Slowest flit = 31876
Fragmentation average = 0
	minimum = 0
	maximum = 0
Injected packet rate average = 0.450861
	minimum = 0.445833 (at node 6)
	maximum = 0.45625 (at node 2)
Accepted packet rate average = 0.450509
	minimum = 0.445417 (at node 0)
	maximum = 0.45575 (at node 6)
Injected flit rate average = 0.450861
	minimum = 0.445833 (at node 6)
	maximum = 0.45625 (at node 2)
Accepted flit rate average= 0.450509
	minimum = 0.445417 (at node 0)
	maximum = 0.45575 (at node 6)
Injected packet length average = 1
Accepted packet length average = 1
Total in-flight flits = 68 (68 measured)
====== Peak Queue Occupancy Statistics (Absolute Max) ======
  Overall Max VC Occupancy = 1
  Overall Max Buffer Occupancy = 2
latency change    = 0.00993357
throughput change = 0.113705
Class 0:
Packet latency average = 13.8546
	minimum = 8
	maximum = 30
	95th percentile = 21.5
	99th percentile = 24.5
Network latency average = 13.8546
	minimum = 8
	maximum = 30
	95th percentile = 21.5
	99th percentile = 24.5
Slowest packet = 31876
Flit latency average = 13.8549
	minimum = 8
	maximum = 30
	95th percentile = 21.5
	99th percentile = 24.5
Slowest flit = 31876
Fragmentation average = 0
	minimum = 0
	maximum = 0
Injected packet rate average = 0.500911
	minimum = 0.4972 (at node 0)
	maximum = 0.506333 (at node 5)
Accepted packet rate average = 0.500459
	minimum = 0.496733 (at node 4)
	maximum = 0.505933 (at node 2)
Injected flit rate average = 0.500911
	minimum = 0.4972 (at node 0)
	maximum = 0.506333 (at node 5)
Accepted flit rate average= 0.500459
	minimum = 0.496733 (at node 4)
	maximum = 0.505933 (at node 2)
Injected packet length average = 1
Accepted packet length average = 1
Total in-flight flits = 91 (91 measured)
====== Peak Queue Occupancy Statistics (Absolute Max) ======
  Overall Max VC Occupancy = 1
  Overall Max Buffer Occupancy = 2
latency change    = 0.010755
throughput change = 0.0998083
Class 0:
Packet latency average = 14.0752
	minimum = 8
	maximum = 31
	95th percentile = 22.5
	99th percentile = 25.5
Network latency average = 14.0752
	minimum = 8
	maximum = 31
	95th percentile = 22.5
	99th percentile = 25.5
Slowest packet = 84650
Flit latency average = 14.0753
	minimum = 8
	maximum = 31
	95th percentile = 22.5
	99th percentile = 25.5
Slowest flit = 84650
Fragmentation average = 0
	minimum = 0
	maximum = 0
Injected packet rate average = 0.550469
	minimum = 0.547 (at node 0)
	maximum = 0.555111 (at node 5)
Accepted packet rate average = 0.549988
	minimum = 0.546556 (at node 4)
	maximum = 0.554611 (at node 2)
Injected flit rate average = 0.550469
	minimum = 0.547 (at node 0)
	maximum = 0.555111 (at node 5)
Accepted flit rate average= 0.549988
	minimum = 0.546556 (at node 4)
	maximum = 0.554611 (at node 2)
Injected packet length average = 1
Accepted packet length average = 1
Total in-flight flits = 108 (108 measured)
====== Peak Queue Occupancy Statistics (Absolute Max) ======
  Overall Max VC Occupancy = 1
  Overall Max Buffer Occupancy = 2
latency change    = 0.0156708
throughput change = 0.0900536
Class 0:
Packet latency average = 14.2191
	minimum = 8
	maximum = 32
	95th percentile = 22.5
	99th percentile = 25.5
Network latency average = 14.2191
	minimum = 8
	maximum = 32
	95th percentile = 22.5
	99th percentile = 25.5
Slowest packet = 110611
Flit latency average = 14.2192
	minimum = 8
	maximum = 32
	95th percentile = 22.5
	99th percentile = 25.5
Slowest flit = 110611
Fragmentation average = 0
	minimum = 0
	maximum = 0
Injected packet rate average = 0.586455
	minimum = 0.582952 (at node 0)
	maximum = 0.58919 (at node 5)
Accepted packet rate average = 0.585995
	minimum = 0.582333 (at node 4)
	maximum = 0.588857 (at node 2)
Injected flit rate average = 0.586455
	minimum = 0.582952 (at node 0)
	maximum = 0.58919 (at node 5)
Accepted flit rate average= 0.585995
	minimum = 0.582333 (at node 4)
	maximum = 0.588857 (at node 2)
Injected packet length average = 1
Accepted packet length average = 1
Total in-flight flits = 117 (117 measured)
====== Peak Queue Occupancy Statistics (Absolute Max) ======
  Overall Max VC Occupancy = 1
  Overall Max Buffer Occupancy = 3
latency change    = 0.0101199
throughput change = 0.061446
Class 0:
Packet latency average = 14.3121
	minimum = 8
	maximum = 32
	95th percentile = 22.5
	99th percentile = 25.5
Network latency average = 14.3121
	minimum = 8
	maximum = 32
	95th percentile = 22.5
	99th percentile = 25.5
Slowest packet = 110611
Flit latency average = 14.3122
	minimum = 8
	maximum = 32
	95th percentile = 22.5
	99th percentile = 25.5
Slowest flit = 110611
Fragmentation average = 0
	minimum = 0
	maximum = 0
Injected packet rate average = 0.613005
	minimum = 0.611 (at node 0)
	maximum = 0.61625 (at node 5)
Accepted packet rate average = 0.612653
	minimum = 0.610583 (at node 4)
	maximum = 0.615958 (at node 2)
Injected flit rate average = 0.613005
	minimum = 0.611 (at node 0)
	maximum = 0.61625 (at node 5)
Accepted flit rate average= 0.612653
	minimum = 0.610583 (at node 4)
	maximum = 0.615958 (at node 2)
Injected packet length average = 1
Accepted packet length average = 1
Total in-flight flits = 106 (106 measured)
====== Peak Queue Occupancy Statistics (Absolute Max) ======
  Overall Max VC Occupancy = 1
  Overall Max Buffer Occupancy = 3
latency change    = 0.00650048
throughput change = 0.0435125
Class 0:
Packet latency average = 14.3822
	minimum = 8
	maximum = 32
	95th percentile = 22.5
	99th percentile = 26.5
Network latency average = 14.3822
	minimum = 8
	maximum = 32
	95th percentile = 22.5
	99th percentile = 26.5
Slowest packet = 110611
Flit latency average = 14.3822
	minimum = 8
	maximum = 32
	95th percentile = 22.5
	99th percentile = 26.5
Slowest flit = 110611
Fragmentation average = 0
	minimum = 0
	maximum = 0
Injected packet rate average = 0.634012
	minimum = 0.631704 (at node 1)
	maximum = 0.637741 (at node 5)
Accepted packet rate average = 0.633679
	minimum = 0.631481 (at node 7)
	maximum = 0.637407 (at node 2)
Injected flit rate average = 0.634012
	minimum = 0.631704 (at node 1)
	maximum = 0.637741 (at node 5)
Accepted flit rate average= 0.633679
	minimum = 0.631481 (at node 7)
	maximum = 0.637407 (at node 2)
Injected packet length average = 1
Accepted packet length average = 1
Total in-flight flits = 111 (111 measured)
====== Peak Queue Occupancy Statistics (Absolute Max) ======
  Overall Max VC Occupancy = 1
  Overall Max Buffer Occupancy = 3
latency change    = 0.00486996
throughput change = 0.0331812
Class 0:
Packet latency average = 14.4385
	minimum = 8
	maximum = 32
	95th percentile = 22.5
	99th percentile = 26.5
Network latency average = 14.4385
	minimum = 8
	maximum = 32
	95th percentile = 22.5
	99th percentile = 26.5
Slowest packet = 110611
Flit latency average = 14.4385
	minimum = 8
	maximum = 32
	95th percentile = 22.5
	99th percentile = 26.5
Slowest flit = 110611
Fragmentation average = 0
	minimum = 0
	maximum = 0
Injected packet rate average = 0.650944
	minimum = 0.647867 (at node 1)
	maximum = 0.653467 (at node 5)
Accepted packet rate average = 0.6507
	minimum = 0.647767 (at node 7)
	maximum = 0.653167 (at node 2)
Injected flit rate average = 0.650944
	minimum = 0.647867 (at node 1)
	maximum = 0.653467 (at node 5)
Accepted flit rate average= 0.6507
	minimum = 0.647767 (at node 7)
	maximum = 0.653167 (at node 2)
Injected packet length average = 1
Accepted packet length average = 1
Total in-flight flits = 96 (96 measured)
====== Peak Queue Occupancy Statistics (Absolute Max) ======
  Overall Max VC Occupancy = 1
  Overall Max Buffer Occupancy = 3
latency change    = 0.00390297
throughput change = 0.026158
Draining all recorded packets ...
Draining remaining packets ...
Time taken is 36047 cycles
====== Overall Traffic Statistics ======
====== Traffic class 0 ======
Packet latency average = 14.4391 (1 samples)
	minimum = 8 (1 samples)
	maximum = 32 (1 samples)
Network latency average = 14.4391 (1 samples)
	minimum = 8 (1 samples)
	maximum = 32 (1 samples)
Flit latency average = 14.4389 (1 samples)
	minimum = 8 (1 samples)
	maximum = 32 (1 samples)
Fragmentation average = 0 (1 samples)
	minimum = 0 (1 samples)
	maximum = 0 (1 samples)
Injected packet rate average = 0.650944 (1 samples)
	minimum = 0.647867 (1 samples)
	maximum = 0.653467 (1 samples)
Accepted packet rate average = 0.6507 (1 samples)
	minimum = 0.647767 (1 samples)
	maximum = 0.653167 (1 samples)
Injected flit rate average = 0.650944 (1 samples)
	minimum = 0.647867 (1 samples)
	maximum = 0.653467 (1 samples)
Accepted flit rate average = 0.6507 (1 samples)
	minimum = 0.647767 (1 samples)
	maximum = 0.653167 (1 samples)
Injected packet size average = 1 (1 samples)
Accepted packet size average = 1 (1 samples)
Hops average = 3.66673 (1 samples)
Total run time 6.50362

