BEGIN Configuration File: D:\noc_huawei\noc\booksim2-noc_speedup_study\booksim2-noc_speedup_study\tests\data\results\random_perm_growth_models_perm_p3_peak_0p8\tmp_configs\linear_scale_hybrid_xy_racke_s2203.config
num_vcs     = 48;
vc_buf_size = 16;
wait_for_tail_credit = 1;

vc_allocator = islip;
sw_allocator = islip;
alloc_iters  = 16;

credit_delay   = 2;
routing_delay  = 0;
vc_alloc_delay = 1;
sw_alloc_delay = 1;
st_final_delay = 1;

input_speedup     = 1;
output_speedup    = 1;
internal_speedup  = 2.0;

sim_type = latency;
latency_thres  = 100000.0;
sim_count      = 1;
queue_sample_period_cycles = 0;

topology = mesh;
k  = 3;
n  = 2;

hybrid_transition_mode = linear_prob;
hybrid_xy_low_threshold = 0.35;
hybrid_racke_high_threshold = 0.65;
hybrid_buffer_soft_threshold = 0.50;
hybrid_buffer_hard_threshold = 0.85;
hybrid_buffer_release_threshold = 0.35;
hybrid_rate_soft_threshold = 0.55;
hybrid_rate_hard_threshold = 0.90;
hybrid_rate_weight = 0.25;
hybrid_congestion_alpha = 0.25;
hybrid_racke_increase_step = 0.25;
hybrid_racke_decrease_step = 0.10;
hybrid_epoch_cycles = 200;
hybrid_hold_cycles = 600;
hybrid_enable_midflight_override = 1;
hybrid_feedback_delay_per_hop = 1;
hybrid_flow_increase_step = 0.20;
hybrid_flow_decrease_step = 0.08;
hybrid_flow_hard_threshold = 0.95;

packet_size = 1;


ordered_injection_coefficients = {0.1666666667,0.3333333333,0.5};
ordered_injection_phase_cycles = {1000,1000,1000};
ordered_injection_source_order = {4,0,7,2,8,1,5,3,6};
ordered_injection_flow_peak_rate = 0.60;
warmup_periods = 2;
custom_perm_array = {4,7,6,5,1,2,0,8,3};
injection_process = scheduled;
injection_rate = 0.8;
scheduled_default_phase_cycles = 3000;
perm_seed = 2203;
hybrid_flow_hotspot_alpha = 0.85;
hybrid_stats_window_cycles = 3000;
hybrid_flow_hotspot_threshold = 1.1;
sample_period = 3000;
scheduled_injection_rates = {0.1,0.2,0.3,0.4,0.5,0.6,0.7,0.8,0.8,0.8};
traffic = custom_perm;
routing_function = hybrid_xy_racke;
scheduled_phase_cycles = {3000,3000,3000,3000,3000,3000,3000,3000,3000,3000};
seed = 2203;
max_samples = 18;

END Configuration File: D:\noc_huawei\noc\booksim2-noc_speedup_study\booksim2-noc_speedup_study\tests\data\results\random_perm_growth_models_perm_p3_peak_0p8\tmp_configs\linear_scale_hybrid_xy_racke_s2203.config
Class 0:
Packet latency average = 10.967
	minimum = 8
	maximum = 17
	95th percentile = 17.5
	99th percentile = 17.5
Network latency average = 10.967
	minimum = 8
	maximum = 17
	95th percentile = 17.5
	99th percentile = 17.5
Slowest packet = 21
Flit latency average = 10.967
	minimum = 8
	maximum = 17
	95th percentile = 17.5
	99th percentile = 17.5
Slowest flit = 21
Fragmentation average = 0
	minimum = 0
	maximum = 0
Injected packet rate average = 0.10037
	minimum = 0.0946667 (at node 2)
	maximum = 0.110667 (at node 6)
Accepted packet rate average = 0.100037
	minimum = 0.0943333 (at node 6)
	maximum = 0.110333 (at node 0)
Injected flit rate average = 0.10037
	minimum = 0.0946667 (at node 2)
	maximum = 0.110667 (at node 6)
Accepted flit rate average= 0.100037
	minimum = 0.0943333 (at node 6)
	maximum = 0.110333 (at node 0)
Injected packet length average = 1
Accepted packet length average = 1
Total in-flight flits = 9 (0 measured)
====== Peak Queue Occupancy Statistics (Absolute Max) ======
  Overall Max VC Occupancy = 1
  Overall Max Buffer Occupancy = 2
latency change    = 1
throughput change = 1
Class 0:
Packet latency average = 11.0377
	minimum = 8
	maximum = 17
	95th percentile = 17.5
	99th percentile = 17.5
Network latency average = 11.0377
	minimum = 8
	maximum = 17
	95th percentile = 17.5
	99th percentile = 17.5
Slowest packet = 21
Flit latency average = 11.0377
	minimum = 8
	maximum = 17
	95th percentile = 17.5
	99th percentile = 17.5
Slowest flit = 21
Fragmentation average = 0
	minimum = 0
	maximum = 0
Injected packet rate average = 0.149889
	minimum = 0.1445 (at node 2)
	maximum = 0.154833 (at node 7)
Accepted packet rate average = 0.149444
	minimum = 0.144333 (at node 6)
	maximum = 0.154167 (at node 5)
Injected flit rate average = 0.149889
	minimum = 0.1445 (at node 2)
	maximum = 0.154833 (at node 7)
Accepted flit rate average= 0.149444
	minimum = 0.144333 (at node 6)
	maximum = 0.154167 (at node 5)
Injected packet length average = 1
Accepted packet length average = 1
Total in-flight flits = 24 (0 measured)
====== Peak Queue Occupancy Statistics (Absolute Max) ======
  Overall Max VC Occupancy = 1
  Overall Max Buffer Occupancy = 2
latency change    = 0.00639819
throughput change = 0.330607
Warmed up ...Time used is 6000 cycles
Class 0:
Packet latency average = 11.1379
	minimum = 8
	maximum = 17
	95th percentile = 17.5
	99th percentile = 17.5
Network latency average = 11.1379
	minimum = 8
	maximum = 17
	95th percentile = 17.5
	99th percentile = 17.5
Slowest packet = 8095
Flit latency average = 11.1392
	minimum = 8
	maximum = 17
	95th percentile = 17.5
	99th percentile = 17.5
Slowest flit = 8082
Fragmentation average = 0
	minimum = 0
	maximum = 0
Injected packet rate average = 0.302556
	minimum = 0.293 (at node 3)
	maximum = 0.312 (at node 5)
Accepted packet rate average = 0.302481
	minimum = 0.292667 (at node 5)
	maximum = 0.313333 (at node 3)
Injected flit rate average = 0.302556
	minimum = 0.293 (at node 3)
	maximum = 0.312 (at node 5)
Accepted flit rate average= 0.302481
	minimum = 0.292667 (at node 5)
	maximum = 0.313333 (at node 3)
Injected packet length average = 1
Accepted packet length average = 1
Total in-flight flits = 26 (26 measured)
====== Peak Queue Occupancy Statistics (Absolute Max) ======
  Overall Max VC Occupancy = 1
  Overall Max Buffer Occupancy = 2
latency change    = 0.00899985
throughput change = 0.505939
Class 0:
Packet latency average = 11.2947
	minimum = 8
	maximum = 21
	95th percentile = 17.5
	99th percentile = 17.5
Network latency average = 11.2947
	minimum = 8
	maximum = 21
	95th percentile = 17.5
	99th percentile = 17.5
Slowest packet = 17623
Flit latency average = 11.295
	minimum = 8
	maximum = 21
	95th percentile = 17.5
	99th percentile = 17.5
Slowest flit = 17623
Fragmentation average = 0
	minimum = 0
	maximum = 0
Injected packet rate average = 0.349444
	minimum = 0.3455 (at node 5)
	maximum = 0.354833 (at node 7)
Accepted packet rate average = 0.349222
	minimum = 0.344833 (at node 2)
	maximum = 0.3555 (at node 8)
Injected flit rate average = 0.349444
	minimum = 0.3455 (at node 5)
	maximum = 0.354833 (at node 7)
Accepted flit rate average= 0.349222
	minimum = 0.344833 (at node 2)
	maximum = 0.3555 (at node 8)
Injected packet length average = 1
Accepted packet length average = 1
Total in-flight flits = 36 (36 measured)
====== Peak Queue Occupancy Statistics (Absolute Max) ======
  Overall Max VC Occupancy = 1
  Overall Max Buffer Occupancy = 2
latency change    = 0.01388
throughput change = 0.133842
Class 0:
Packet latency average = 14.2618
	minimum = 8
	maximum = 64
	95th percentile = 36.5
	99th percentile = 49.5
Network latency average = 14.2618
	minimum = 8
	maximum = 64
	95th percentile = 36.5
	99th percentile = 49.5
Slowest packet = 35528
Flit latency average = 14.2598
	minimum = 8
	maximum = 64
	95th percentile = 36.5
	99th percentile = 49.5
Slowest flit = 35528
Fragmentation average = 0
	minimum = 0
	maximum = 0
Injected packet rate average = 0.399679
	minimum = 0.395111 (at node 6)
	maximum = 0.402333 (at node 2)
Accepted packet rate average = 0.399099
	minimum = 0.394778 (at node 0)
	maximum = 0.401667 (at node 6)
Injected flit rate average = 0.399679
	minimum = 0.395111 (at node 6)
	maximum = 0.402333 (at node 2)
Accepted flit rate average= 0.399099
	minimum = 0.394778 (at node 0)
	maximum = 0.401667 (at node 6)
Injected packet length average = 1
Accepted packet length average = 1
Total in-flight flits = 71 (71 measured)
====== Peak Queue Occupancy Statistics (Absolute Max) ======
  Overall Max VC Occupancy = 1
  Overall Max Buffer Occupancy = 4
latency change    = 0.208047
throughput change = 0.124973
Class 0:
Packet latency average = 23.7929
	minimum = 8
	maximum = 716
	95th percentile = 77.5
	99th percentile = 189.5
Network latency average = 23.6498
	minimum = 8
	maximum = 716
	95th percentile = 76.5
	99th percentile = 188.5
Slowest packet = 44249
Flit latency average = 23.6439
	minimum = 8
	maximum = 716
	95th percentile = 76.5
	99th percentile = 188.5
Slowest flit = 44249
Fragmentation average = 0
	minimum = 0
	maximum = 0
Injected packet rate average = 0.451148
	minimum = 0.447167 (at node 0)
	maximum = 0.45475 (at node 5)
Accepted packet rate average = 0.44938
	minimum = 0.443667 (at node 4)
	maximum = 0.4545 (at node 2)
Injected flit rate average = 0.451148
	minimum = 0.447167 (at node 0)
	maximum = 0.45475 (at node 5)
Accepted flit rate average= 0.44938
	minimum = 0.443667 (at node 4)
	maximum = 0.4545 (at node 2)
Injected packet length average = 1
Accepted packet length average = 1
Total in-flight flits = 215 (215 measured)
====== Peak Queue Occupancy Statistics (Absolute Max) ======
  Overall Max VC Occupancy = 1
  Overall Max Buffer Occupancy = 48
latency change    = 0.400586
throughput change = 0.11189
Class 0:
Packet latency average = 29.4952
	minimum = 8
	maximum = 724
	95th percentile = 100.5
	99th percentile = 282.5
Network latency average = 28.7019
	minimum = 8
	maximum = 724
	95th percentile = 94.5
	99th percentile = 274.5
Slowest packet = 71111
Flit latency average = 28.6958
	minimum = 8
	maximum = 724
	95th percentile = 94.5
	99th percentile = 274.5
Slowest flit = 71111
Fragmentation average = 0
	minimum = 0
	maximum = 0
Injected packet rate average = 0.501519
	minimum = 0.4976 (at node 4)
	maximum = 0.506 (at node 2)
Accepted packet rate average = 0.499896
	minimum = 0.495667 (at node 0)
	maximum = 0.505 (at node 6)
Injected flit rate average = 0.501519
	minimum = 0.4976 (at node 4)
	maximum = 0.506 (at node 2)
Accepted flit rate average= 0.499896
	minimum = 0.495667 (at node 0)
	maximum = 0.505 (at node 6)
Injected packet length average = 1
Accepted packet length average = 1
Total in-flight flits = 243 (243 measured)
====== Peak Queue Occupancy Statistics (Absolute Max) ======
  Overall Max VC Occupancy = 1
  Overall Max Buffer Occupancy = 48
latency change    = 0.19333
throughput change = 0.101054
Class 0:
Packet latency average = 37.2234
	minimum = 8
	maximum = 965
	95th percentile = 142.5
	99th percentile = 349.5
Network latency average = 34.4474
	minimum = 8
	maximum = 931
	95th percentile = 122.5
	99th percentile = 334.5
Slowest packet = 83632
Flit latency average = 34.4412
	minimum = 8
	maximum = 931
	95th percentile = 122.5
	99th percentile = 334.5
Slowest flit = 83632
Fragmentation average = 0
	minimum = 0
	maximum = 0
Injected packet rate average = 0.55037
	minimum = 0.542611 (at node 6)
	maximum = 0.555722 (at node 2)
Accepted packet rate average = 0.548475
	minimum = 0.538611 (at node 0)
	maximum = 0.554556 (at node 6)
Injected flit rate average = 0.55037
	minimum = 0.542611 (at node 6)
	maximum = 0.555722 (at node 2)
Accepted flit rate average= 0.548475
	minimum = 0.538611 (at node 0)
	maximum = 0.554556 (at node 6)
Injected packet length average = 1
Accepted packet length average = 1
Total in-flight flits = 331 (331 measured)
====== Peak Queue Occupancy Statistics (Absolute Max) ======
  Overall Max VC Occupancy = 1
  Overall Max Buffer Occupancy = 48
latency change    = 0.207615
throughput change = 0.088571
Class 0:
Packet latency average = 42.2143
	minimum = 8
	maximum = 1200
	95th percentile = 164.5
	99th percentile = 377.5
Network latency average = 38.076
	minimum = 8
	maximum = 1110
	95th percentile = 142.5
	99th percentile = 352.5
Slowest packet = 98959
Flit latency average = 38.0702
	minimum = 8
	maximum = 1110
	95th percentile = 142.5
	99th percentile = 352.5
Slowest flit = 98959
Fragmentation average = 0
	minimum = 0
	maximum = 0
Injected packet rate average = 0.586899
	minimum = 0.583619 (at node 3)
	maximum = 0.59019 (at node 2)
Accepted packet rate average = 0.585212
	minimum = 0.581333 (at node 0)
	maximum = 0.589524 (at node 6)
Injected flit rate average = 0.586899
	minimum = 0.583619 (at node 3)
	maximum = 0.59019 (at node 2)
Accepted flit rate average= 0.585212
	minimum = 0.581333 (at node 0)
	maximum = 0.589524 (at node 6)
Injected packet length average = 1
Accepted packet length average = 1
Total in-flight flits = 343 (343 measured)
====== Peak Queue Occupancy Statistics (Absolute Max) ======
  Overall Max VC Occupancy = 1
  Overall Max Buffer Occupancy = 48
latency change    = 0.118228
throughput change = 0.0627744
Class 0:
Packet latency average = 44.5006
	minimum = 8
	maximum = 1200
	95th percentile = 171.5
	99th percentile = 391.5
Network latency average = 40.15
	minimum = 8
	maximum = 1110
	95th percentile = 152.5
	99th percentile = 370.5
Slowest packet = 98959
Flit latency average = 40.1448
	minimum = 8
	maximum = 1110
	95th percentile = 152.5
	99th percentile = 370.5
Slowest flit = 98959
Fragmentation average = 0
	minimum = 0
	maximum = 0
Injected packet rate average = 0.61387
	minimum = 0.610625 (at node 3)
	maximum = 0.617208 (at node 2)
Accepted packet rate average = 0.61206
	minimum = 0.609917 (at node 0)
	maximum = 0.616458 (at node 6)
Injected flit rate average = 0.61387
	minimum = 0.610625 (at node 3)
	maximum = 0.617208 (at node 2)
Accepted flit rate average= 0.61206
	minimum = 0.609917 (at node 0)
	maximum = 0.616458 (at node 6)
Injected packet length average = 1
Accepted packet length average = 1
Total in-flight flits = 415 (415 measured)
====== Peak Queue Occupancy Statistics (Absolute Max) ======
  Overall Max VC Occupancy = 1
  Overall Max Buffer Occupancy = 48
latency change    = 0.0513772
throughput change = 0.0438659
Class 0:
Packet latency average = 46.5701
	minimum = 8
	maximum = 1200
	95th percentile = 179.5
	99th percentile = 409.5
Network latency average = 42.1002
	minimum = 8
	maximum = 1181
	95th percentile = 160.5
	99th percentile = 389.5
Slowest packet = 98959
Flit latency average = 42.0955
	minimum = 8
	maximum = 1181
	95th percentile = 160.5
	99th percentile = 389.5
Slowest flit = 136958
Fragmentation average = 0
	minimum = 0
	maximum = 0
Injected packet rate average = 0.63444
	minimum = 0.630815 (at node 3)
	maximum = 0.637333 (at node 2)
Accepted packet rate average = 0.633091
	minimum = 0.630593 (at node 5)
	maximum = 0.636667 (at node 6)
Injected flit rate average = 0.63444
	minimum = 0.630815 (at node 3)
	maximum = 0.637333 (at node 2)
Accepted flit rate average= 0.633091
	minimum = 0.630593 (at node 5)
	maximum = 0.636667 (at node 6)
Injected packet length average = 1
Accepted packet length average = 1
Total in-flight flits = 353 (353 measured)
====== Peak Queue Occupancy Statistics (Absolute Max) ======
  Overall Max VC Occupancy = 1
  Overall Max Buffer Occupancy = 48
latency change    = 0.0444394
throughput change = 0.0332186
Class 0:
Packet latency average = 47.9833
	minimum = 8
	maximum = 1200
	95th percentile = 185.5
	99th percentile = 425.5
Network latency average = 43.6368
	minimum = 8
	maximum = 1181
	95th percentile = 168.5
	99th percentile = 405.5
Slowest packet = 98959
Flit latency average = 43.6325
	minimum = 8
	maximum = 1181
	95th percentile = 168.5
	99th percentile = 405.5
Slowest flit = 136958
Fragmentation average = 0
	minimum = 0
	maximum = 0
Injected packet rate average = 0.651267
	minimum = 0.6467 (at node 3)
	maximum = 0.653533 (at node 2)
Accepted packet rate average = 0.649704
	minimum = 0.6465 (at node 5)
	maximum = 0.651967 (at node 6)
Injected flit rate average = 0.651267
	minimum = 0.6467 (at node 3)
	maximum = 0.653533 (at node 2)
Accepted flit rate average= 0.649704
	minimum = 0.6465 (at node 5)
	maximum = 0.651967 (at node 6)
Injected packet length average = 1
Accepted packet length average = 1
Total in-flight flits = 446 (446 measured)
====== Peak Queue Occupancy Statistics (Absolute Max) ======
  Overall Max VC Occupancy = 1
  Overall Max Buffer Occupancy = 48
latency change    = 0.0294518
throughput change = 0.0255704
Class 0:
Packet latency average = 53.1144
	minimum = 8
	maximum = 1200
	95th percentile = 226.5
	99th percentile = 462.5
Network latency average = 45.5855
	minimum = 8
	maximum = 1181
	95th percentile = 180.5
	99th percentile = 428.5
Slowest packet = 98959
Flit latency average = 45.5813
	minimum = 8
	maximum = 1181
	95th percentile = 180.5
	99th percentile = 428.5
Slowest flit = 136958
Fragmentation average = 0
	minimum = 0
	maximum = 0
Injected packet rate average = 0.663256
	minimum = 0.659 (at node 6)
	maximum = 0.666333 (at node 1)
Accepted packet rate average = 0.661832
	minimum = 0.656879 (at node 0)
	maximum = 0.664636 (at node 1)
Injected flit rate average = 0.663256
	minimum = 0.659 (at node 6)
	maximum = 0.666333 (at node 1)
Accepted flit rate average= 0.661832
	minimum = 0.656879 (at node 0)
	maximum = 0.664636 (at node 1)
Injected packet length average = 1
Accepted packet length average = 1
Total in-flight flits = 448 (448 measured)
====== Peak Queue Occupancy Statistics (Absolute Max) ======
  Overall Max VC Occupancy = 1
  Overall Max Buffer Occupancy = 48
latency change    = 0.0966044
throughput change = 0.0183248
Class 0:
Packet latency average = 59.1806
	minimum = 8
	maximum = 1496
	95th percentile = 255.5
	99th percentile = 496.5
Network latency average = 47.5004
	minimum = 8
	maximum = 1413
	95th percentile = 186.5
	99th percentile = 441.5
Slowest packet = 197805
Flit latency average = 47.4964
	minimum = 8
	maximum = 1413
	95th percentile = 186.5
	99th percentile = 441.5
Slowest flit = 215739
Fragmentation average = 0
	minimum = 0
	maximum = 0
Injected packet rate average = 0.674614
	minimum = 0.67175 (at node 8)
	maximum = 0.67675 (at node 2)
Accepted packet rate average = 0.673198
	minimum = 0.668556 (at node 3)
	maximum = 0.675167 (at node 6)
Injected flit rate average = 0.674614
	minimum = 0.67175 (at node 8)
	maximum = 0.67675 (at node 2)
Accepted flit rate average= 0.673198
	minimum = 0.668556 (at node 3)
	maximum = 0.675167 (at node 6)
Injected packet length average = 1
Accepted packet length average = 1
Total in-flight flits = 484 (484 measured)
====== Peak Queue Occupancy Statistics (Absolute Max) ======
  Overall Max VC Occupancy = 1
  Overall Max Buffer Occupancy = 48
latency change    = 0.102504
throughput change = 0.0168834
Class 0:
Packet latency average = 64.4094
	minimum = 8
	maximum = 1496
	95th percentile = 285.5
	99th percentile = 517.5
Network latency average = 49.3631
	minimum = 8
	maximum = 1413
	95th percentile = 198.5
	99th percentile = 457.5
Slowest packet = 197805
Flit latency average = 49.3593
	minimum = 8
	maximum = 1413
	95th percentile = 198.5
	99th percentile = 457.5
Slowest flit = 215739
Fragmentation average = 0
	minimum = 0
	maximum = 0
Injected packet rate average = 0.685214
	minimum = 0.681923 (at node 3)
	maximum = 0.687615 (at node 8)
Accepted packet rate average = 0.683812
	minimum = 0.681333 (at node 5)
	maximum = 0.685128 (at node 6)
Injected flit rate average = 0.685214
	minimum = 0.681923 (at node 3)
	maximum = 0.687615 (at node 8)
Accepted flit rate average= 0.683812
	minimum = 0.681333 (at node 5)
	maximum = 0.685128 (at node 6)
Injected packet length average = 1
Accepted packet length average = 1
Total in-flight flits = 516 (516 measured)
====== Peak Queue Occupancy Statistics (Absolute Max) ======
  Overall Max VC Occupancy = 1
  Overall Max Buffer Occupancy = 48
latency change    = 0.08118
throughput change = 0.0155224
Class 0:
Packet latency average = 64.7567
	minimum = 8
	maximum = 1831
	95th percentile = 285.5
	99th percentile = 522.5
Network latency average = 50.2748
	minimum = 8
	maximum = 1657
	95th percentile = 203.5
	99th percentile = 467.5
Slowest packet = 237991
Flit latency average = 50.2713
	minimum = 8
	maximum = 1657
	95th percentile = 203.5
	99th percentile = 467.5
Slowest flit = 239654
Fragmentation average = 0
	minimum = 0
	maximum = 0
Injected packet rate average = 0.693553
	minimum = 0.689952 (at node 3)
	maximum = 0.69719 (at node 8)
Accepted packet rate average = 0.692601
	minimum = 0.689714 (at node 5)
	maximum = 0.696048 (at node 3)
Injected flit rate average = 0.693553
	minimum = 0.689952 (at node 3)
	maximum = 0.69719 (at node 8)
Accepted flit rate average= 0.692601
	minimum = 0.689714 (at node 5)
	maximum = 0.696048 (at node 3)
Injected packet length average = 1
Accepted packet length average = 1
Total in-flight flits = 384 (384 measured)
====== Peak Queue Occupancy Statistics (Absolute Max) ======
  Overall Max VC Occupancy = 1
  Overall Max Buffer Occupancy = 48
latency change    = 0.00536335
throughput change = 0.0126892
Class 0:
Packet latency average = 64.6513
	minimum = 8
	maximum = 1831
	95th percentile = 282.5
	99th percentile = 519.5
Network latency average = 50.4049
	minimum = 8
	maximum = 1657
	95th percentile = 204.5
	99th percentile = 465.5
Slowest packet = 237991
Flit latency average = 50.4016
	minimum = 8
	maximum = 1657
	95th percentile = 204.5
	99th percentile = 465.5
Slowest flit = 239654
Fragmentation average = 0
	minimum = 0
	maximum = 0
Injected packet rate average = 0.700202
	minimum = 0.697 (at node 3)
	maximum = 0.7036 (at node 6)
Accepted packet rate average = 0.69901
	minimum = 0.695911 (at node 5)
	maximum = 0.702356 (at node 0)
Injected flit rate average = 0.700202
	minimum = 0.697 (at node 3)
	maximum = 0.7036 (at node 6)
Accepted flit rate average= 0.69901
	minimum = 0.695911 (at node 5)
	maximum = 0.702356 (at node 0)
Injected packet length average = 1
Accepted packet length average = 1
Total in-flight flits = 508 (508 measured)
====== Peak Queue Occupancy Statistics (Absolute Max) ======
  Overall Max VC Occupancy = 1
  Overall Max Buffer Occupancy = 48
latency change    = 0.00163093
throughput change = 0.00916918
Class 0:
Packet latency average = 66.2675
	minimum = 8
	maximum = 1831
	95th percentile = 286.5
	99th percentile = 527.5
Network latency average = 51.8059
	minimum = 8
	maximum = 1657
	95th percentile = 211.5
	99th percentile = 477.5
Slowest packet = 237991
Flit latency average = 51.8027
	minimum = 8
	maximum = 1657
	95th percentile = 211.5
	99th percentile = 477.5
Slowest flit = 239654
Fragmentation average = 0
	minimum = 0
	maximum = 0
Injected packet rate average = 0.706667
	minimum = 0.703875 (at node 3)
	maximum = 0.711021 (at node 8)
Accepted packet rate average = 0.705752
	minimum = 0.703375 (at node 5)
	maximum = 0.709812 (at node 3)
Injected flit rate average = 0.706667
	minimum = 0.703875 (at node 3)
	maximum = 0.711021 (at node 8)
Accepted flit rate average= 0.705752
	minimum = 0.703375 (at node 5)
	maximum = 0.709812 (at node 3)
Injected packet length average = 1
Accepted packet length average = 1
Total in-flight flits = 419 (419 measured)
====== Peak Queue Occupancy Statistics (Absolute Max) ======
  Overall Max VC Occupancy = 1
  Overall Max Buffer Occupancy = 48
latency change    = 0.0243892
throughput change = 0.00955355
Draining all recorded packets ...
Draining remaining packets ...
Time taken is 54824 cycles
====== Overall Traffic Statistics ======
====== Traffic class 0 ======
Packet latency average = 66.527 (1 samples)
	minimum = 8 (1 samples)
	maximum = 1831 (1 samples)
Network latency average = 52.0421 (1 samples)
	minimum = 8 (1 samples)
	maximum = 1657 (1 samples)
Flit latency average = 51.8828 (1 samples)
	minimum = 8 (1 samples)
	maximum = 1657 (1 samples)
Fragmentation average = 0 (1 samples)
	minimum = 0 (1 samples)
	maximum = 0 (1 samples)
Injected packet rate average = 0.706667 (1 samples)
	minimum = 0.703875 (1 samples)
	maximum = 0.711021 (1 samples)
Accepted packet rate average = 0.705752 (1 samples)
	minimum = 0.703375 (1 samples)
	maximum = 0.709812 (1 samples)
Injected flit rate average = 0.706667 (1 samples)
	minimum = 0.703875 (1 samples)
	maximum = 0.711021 (1 samples)
Accepted flit rate average = 0.705752 (1 samples)
	minimum = 0.703375 (1 samples)
	maximum = 0.709812 (1 samples)
Injected packet size average = 1 (1 samples)
Accepted packet size average = 1 (1 samples)
Hops average = 3.36192 (1 samples)
Total run time 16.7824
====== Hybrid Routing Split Statistics ======
XY packets = 132505
Racke packets = 186073
XY fraction = 0.415926
Racke fraction = 0.584074
Flow (0 -> 4) alpha=1 xy_packets=8733 racke_packets=26675 racke_fraction=0.753361
Flow (1 -> 7) alpha=1 xy_packets=8519 racke_packets=26865 racke_fraction=0.759241
Flow (2 -> 6) alpha=1 xy_packets=7771 racke_packets=27619 racke_fraction=0.780418
Flow (3 -> 5) alpha=0.501243 xy_packets=22858 racke_packets=12424 racke_fraction=0.352134
Flow (4 -> 1) alpha=1 xy_packets=8704 racke_packets=26610 racke_fraction=0.753526
Flow (5 -> 2) alpha=0.492486 xy_packets=22919 racke_packets=12404 racke_fraction=0.351159
Flow (6 -> 0) alpha=0.792703 xy_packets=12931 racke_packets=22535 racke_fraction=0.635397
Flow (7 -> 8) alpha=0 xy_packets=27227 racke_packets=8165 racke_fraction=0.230702
Flow (8 -> 3) alpha=0.806441 xy_packets=12843 racke_packets=22776 racke_fraction=0.639434
====== Hybrid Routing Window Statistics ======
Window [0,3000) xy_packets=2710 racke_packets=0 xy_fraction=1
Window [3000,6000) xy_packets=5384 racke_packets=0 xy_fraction=1
Window [6000,9000) xy_packets=8169 racke_packets=0 xy_fraction=1
Window [9000,12000) xy_packets=10701 racke_packets=0 xy_fraction=1
Window [12000,15000) xy_packets=13504 racke_packets=0 xy_fraction=1
Window [15000,18000) xy_packets=12443 racke_packets=3907 xy_fraction=0.76104
Window [18000,21000) xy_packets=10186 racke_packets=8795 xy_fraction=0.536642
Window [21000,24000) xy_packets=8000 racke_packets=13455 xy_fraction=0.372873
Window [24000,27000) xy_packets=6078 racke_packets=15686 xy_fraction=0.279269
Window [27000,30000) xy_packets=7057 racke_packets=14615 xy_fraction=0.325628
Window [30000,33000) xy_packets=6453 racke_packets=15121 xy_fraction=0.29911
Window [33000,36000) xy_packets=7285 racke_packets=14387 xy_fraction=0.336148
Window [36000,39000) xy_packets=5948 racke_packets=15198 xy_fraction=0.281283
Window [39000,42000) xy_packets=5305 racke_packets=16283 xy_fraction=0.245738
Window [42000,45000) xy_packets=3977 racke_packets=17957 xy_fraction=0.181317
Window [45000,48000) xy_packets=5311 racke_packets=16342 xy_fraction=0.245278
Window [48000,51000) xy_packets=7598 racke_packets=13822 xy_fraction=0.354715
Window [51000,54000) xy_packets=5115 racke_packets=16582 xy_fraction=0.235747
Window [54000,57000) xy_packets=1281 racke_packets=3923 xy_fraction=0.246157

