BEGIN Configuration File: D:\noc_huawei\noc\booksim2-noc_speedup_study\booksim2-noc_speedup_study\tests\data\results\random_perm_growth_models_perm_p3_peak_0p8\tmp_configs\linear_scale_hybrid_xy_racke_s2202.config
num_vcs     = 48;
vc_buf_size = 16;
wait_for_tail_credit = 1;

vc_allocator = islip;
sw_allocator = islip;
alloc_iters  = 16;

credit_delay   = 2;
routing_delay  = 0;
vc_alloc_delay = 1;
sw_alloc_delay = 1;
st_final_delay = 1;

input_speedup     = 1;
output_speedup    = 1;
internal_speedup  = 2.0;

sim_type = latency;
latency_thres  = 100000.0;
sim_count      = 1;
queue_sample_period_cycles = 0;

topology = mesh;
k  = 3;
n  = 2;

hybrid_transition_mode = linear_prob;
hybrid_xy_low_threshold = 0.35;
hybrid_racke_high_threshold = 0.65;
hybrid_buffer_soft_threshold = 0.50;
hybrid_buffer_hard_threshold = 0.85;
hybrid_buffer_release_threshold = 0.35;
hybrid_rate_soft_threshold = 0.55;
hybrid_rate_hard_threshold = 0.90;
hybrid_rate_weight = 0.25;
hybrid_congestion_alpha = 0.25;
hybrid_racke_increase_step = 0.25;
hybrid_racke_decrease_step = 0.10;
hybrid_epoch_cycles = 200;
hybrid_hold_cycles = 600;
hybrid_enable_midflight_override = 1;
hybrid_feedback_delay_per_hop = 1;
hybrid_flow_increase_step = 0.20;
hybrid_flow_decrease_step = 0.08;
hybrid_flow_hard_threshold = 0.95;

packet_size = 1;


ordered_injection_coefficients = {0.1666666667,0.3333333333,0.5};
ordered_injection_phase_cycles = {1000,1000,1000};
ordered_injection_source_order = {4,0,7,2,8,1,5,3,6};
ordered_injection_flow_peak_rate = 0.60;
warmup_periods = 2;
custom_perm_array = {4,7,6,5,1,2,0,8,3};
injection_process = scheduled;
injection_rate = 0.8;
scheduled_default_phase_cycles = 3000;
perm_seed = 2202;
hybrid_flow_hotspot_alpha = 0.85;
hybrid_stats_window_cycles = 3000;
hybrid_flow_hotspot_threshold = 1.1;
sample_period = 3000;
scheduled_injection_rates = {0.1,0.2,0.3,0.4,0.5,0.6,0.7,0.8,0.8,0.8};
traffic = custom_perm;
routing_function = hybrid_xy_racke;
scheduled_phase_cycles = {3000,3000,3000,3000,3000,3000,3000,3000,3000,3000};
seed = 2202;
max_samples = 18;

END Configuration File: D:\noc_huawei\noc\booksim2-noc_speedup_study\booksim2-noc_speedup_study\tests\data\results\random_perm_growth_models_perm_p3_peak_0p8\tmp_configs\linear_scale_hybrid_xy_racke_s2202.config
Class 0:
Packet latency average = 10.9771
	minimum = 8
	maximum = 17
	95th percentile = 17.5
	99th percentile = 17.5
Network latency average = 10.9771
	minimum = 8
	maximum = 17
	95th percentile = 17.5
	99th percentile = 17.5
Slowest packet = 0
Flit latency average = 10.9771
	minimum = 8
	maximum = 17
	95th percentile = 17.5
	99th percentile = 17.5
Slowest flit = 0
Fragmentation average = 0
	minimum = 0
	maximum = 0
Injected packet rate average = 0.100704
	minimum = 0.0906667 (at node 1)
	maximum = 0.108333 (at node 7)
Accepted packet rate average = 0.100481
	minimum = 0.0906667 (at node 7)
	maximum = 0.108 (at node 8)
Injected flit rate average = 0.100704
	minimum = 0.0906667 (at node 1)
	maximum = 0.108333 (at node 7)
Accepted flit rate average= 0.100481
	minimum = 0.0906667 (at node 7)
	maximum = 0.108 (at node 8)
Injected packet length average = 1
Accepted packet length average = 1
Total in-flight flits = 6 (0 measured)
====== Peak Queue Occupancy Statistics (Absolute Max) ======
  Overall Max VC Occupancy = 1
  Overall Max Buffer Occupancy = 2
latency change    = 1
throughput change = 1
Class 0:
Packet latency average = 11.0295
	minimum = 8
	maximum = 17
	95th percentile = 17.5
	99th percentile = 17.5
Network latency average = 11.0295
	minimum = 8
	maximum = 17
	95th percentile = 17.5
	99th percentile = 17.5
Slowest packet = 0
Flit latency average = 11.0295
	minimum = 8
	maximum = 17
	95th percentile = 17.5
	99th percentile = 17.5
Slowest flit = 0
Fragmentation average = 0
	minimum = 0
	maximum = 0
Injected packet rate average = 0.149667
	minimum = 0.140833 (at node 1)
	maximum = 0.158667 (at node 7)
Accepted packet rate average = 0.149352
	minimum = 0.1405 (at node 7)
	maximum = 0.158667 (at node 8)
Injected flit rate average = 0.149667
	minimum = 0.140833 (at node 1)
	maximum = 0.158667 (at node 7)
Accepted flit rate average= 0.149352
	minimum = 0.1405 (at node 7)
	maximum = 0.158667 (at node 8)
Injected packet length average = 1
Accepted packet length average = 1
Total in-flight flits = 17 (0 measured)
====== Peak Queue Occupancy Statistics (Absolute Max) ======
  Overall Max VC Occupancy = 1
  Overall Max Buffer Occupancy = 2
latency change    = 0.00474755
throughput change = 0.327216
Warmed up ...Time used is 6000 cycles
Class 0:
Packet latency average = 11.1554
	minimum = 8
	maximum = 17
	95th percentile = 17.5
	99th percentile = 17.5
Network latency average = 11.1554
	minimum = 8
	maximum = 17
	95th percentile = 17.5
	99th percentile = 17.5
Slowest packet = 8095
Flit latency average = 11.1547
	minimum = 8
	maximum = 17
	95th percentile = 17.5
	99th percentile = 17.5
Slowest flit = 8067
Fragmentation average = 0
	minimum = 0
	maximum = 0
Injected packet rate average = 0.301259
	minimum = 0.291667 (at node 2)
	maximum = 0.311333 (at node 6)
Accepted packet rate average = 0.300963
	minimum = 0.290667 (at node 6)
	maximum = 0.311 (at node 0)
Injected flit rate average = 0.301259
	minimum = 0.291667 (at node 2)
	maximum = 0.311333 (at node 6)
Accepted flit rate average= 0.300963
	minimum = 0.290667 (at node 6)
	maximum = 0.311 (at node 0)
Injected packet length average = 1
Accepted packet length average = 1
Total in-flight flits = 25 (25 measured)
====== Peak Queue Occupancy Statistics (Absolute Max) ======
  Overall Max VC Occupancy = 1
  Overall Max Buffer Occupancy = 2
latency change    = 0.0112836
throughput change = 0.503753
Class 0:
Packet latency average = 11.2645
	minimum = 8
	maximum = 21
	95th percentile = 17.5
	99th percentile = 17.5
Network latency average = 11.2645
	minimum = 8
	maximum = 21
	95th percentile = 17.5
	99th percentile = 17.5
Slowest packet = 18575
Flit latency average = 11.2641
	minimum = 8
	maximum = 21
	95th percentile = 17.5
	99th percentile = 17.5
Slowest flit = 18575
Fragmentation average = 0
	minimum = 0
	maximum = 0
Injected packet rate average = 0.350111
	minimum = 0.340833 (at node 2)
	maximum = 0.3595 (at node 3)
Accepted packet rate average = 0.349556
	minimum = 0.3395 (at node 6)
	maximum = 0.359167 (at node 5)
Injected flit rate average = 0.350111
	minimum = 0.340833 (at node 2)
	maximum = 0.3595 (at node 3)
Accepted flit rate average= 0.349556
	minimum = 0.3395 (at node 6)
	maximum = 0.359167 (at node 5)
Injected packet length average = 1
Accepted packet length average = 1
Total in-flight flits = 47 (47 measured)
====== Peak Queue Occupancy Statistics (Absolute Max) ======
  Overall Max VC Occupancy = 1
  Overall Max Buffer Occupancy = 2
latency change    = 0.00969052
throughput change = 0.139013
Class 0:
Packet latency average = 13.9408
	minimum = 8
	maximum = 67
	95th percentile = 35.5
	99th percentile = 52.5
Network latency average = 13.9408
	minimum = 8
	maximum = 67
	95th percentile = 35.5
	99th percentile = 52.5
Slowest packet = 37816
Flit latency average = 13.9391
	minimum = 8
	maximum = 67
	95th percentile = 35.5
	99th percentile = 52.5
Slowest flit = 37816
Fragmentation average = 0
	minimum = 0
	maximum = 0
Injected packet rate average = 0.400457
	minimum = 0.392111 (at node 1)
	maximum = 0.409556 (at node 3)
Accepted packet rate average = 0.399469
	minimum = 0.391 (at node 7)
	maximum = 0.409667 (at node 5)
Injected flit rate average = 0.400457
	minimum = 0.392111 (at node 1)
	maximum = 0.409556 (at node 3)
Accepted flit rate average= 0.399469
	minimum = 0.391 (at node 7)
	maximum = 0.409667 (at node 5)
Injected packet length average = 1
Accepted packet length average = 1
Total in-flight flits = 97 (97 measured)
====== Peak Queue Occupancy Statistics (Absolute Max) ======
  Overall Max VC Occupancy = 1
  Overall Max Buffer Occupancy = 5
latency change    = 0.19197
throughput change = 0.12495
Class 0:
Packet latency average = 23.1783
	minimum = 8
	maximum = 555
	95th percentile = 75.5
	99th percentile = 204.5
Network latency average = 23.0082
	minimum = 8
	maximum = 555
	95th percentile = 74.5
	99th percentile = 201.5
Slowest packet = 51171
Flit latency average = 23.004
	minimum = 8
	maximum = 555
	95th percentile = 74.5
	99th percentile = 201.5
Slowest flit = 51171
Fragmentation average = 0
	minimum = 0
	maximum = 0
Injected packet rate average = 0.449315
	minimum = 0.442083 (at node 1)
	maximum = 0.4565 (at node 3)
Accepted packet rate average = 0.448139
	minimum = 0.439083 (at node 7)
	maximum = 0.456417 (at node 5)
Injected flit rate average = 0.449315
	minimum = 0.442083 (at node 1)
	maximum = 0.4565 (at node 3)
Accepted flit rate average= 0.448139
	minimum = 0.439083 (at node 7)
	maximum = 0.456417 (at node 5)
Injected packet length average = 1
Accepted packet length average = 1
Total in-flight flits = 144 (144 measured)
====== Peak Queue Occupancy Statistics (Absolute Max) ======
  Overall Max VC Occupancy = 1
  Overall Max Buffer Occupancy = 48
latency change    = 0.398543
throughput change = 0.108604
Class 0:
Packet latency average = 29.7988
	minimum = 8
	maximum = 1026
	95th percentile = 100.5
	99th percentile = 293.5
Network latency average = 29.0643
	minimum = 8
	maximum = 990
	95th percentile = 92.5
	99th percentile = 290.5
Slowest packet = 58322
Flit latency average = 29.0597
	minimum = 8
	maximum = 990
	95th percentile = 92.5
	99th percentile = 290.5
Slowest flit = 58322
Fragmentation average = 0
	minimum = 0
	maximum = 0
Injected packet rate average = 0.499341
	minimum = 0.4924 (at node 1)
	maximum = 0.5056 (at node 6)
Accepted packet rate average = 0.497556
	minimum = 0.4886 (at node 7)
	maximum = 0.5048 (at node 5)
Injected flit rate average = 0.499341
	minimum = 0.4924 (at node 1)
	maximum = 0.5056 (at node 6)
Accepted flit rate average= 0.497556
	minimum = 0.4886 (at node 7)
	maximum = 0.5048 (at node 5)
Injected packet length average = 1
Accepted packet length average = 1
Total in-flight flits = 258 (258 measured)
====== Peak Queue Occupancy Statistics (Absolute Max) ======
  Overall Max VC Occupancy = 1
  Overall Max Buffer Occupancy = 48
latency change    = 0.222172
throughput change = 0.0993189
Class 0:
Packet latency average = 35.3698
	minimum = 8
	maximum = 1167
	95th percentile = 124.5
	99th percentile = 344.5
Network latency average = 33.7678
	minimum = 8
	maximum = 1167
	95th percentile = 109.5
	99th percentile = 338.5
Slowest packet = 79883
Flit latency average = 33.7634
	minimum = 8
	maximum = 1167
	95th percentile = 109.5
	99th percentile = 338.5
Slowest flit = 79883
Fragmentation average = 0
	minimum = 0
	maximum = 0
Injected packet rate average = 0.54913
	minimum = 0.542222 (at node 1)
	maximum = 0.555889 (at node 3)
Accepted packet rate average = 0.546481
	minimum = 0.538444 (at node 7)
	maximum = 0.554333 (at node 5)
Injected flit rate average = 0.54913
	minimum = 0.542222 (at node 1)
	maximum = 0.555889 (at node 3)
Accepted flit rate average= 0.546481
	minimum = 0.538444 (at node 7)
	maximum = 0.554333 (at node 5)
Injected packet length average = 1
Accepted packet length average = 1
Total in-flight flits = 446 (446 measured)
====== Peak Queue Occupancy Statistics (Absolute Max) ======
  Overall Max VC Occupancy = 1
  Overall Max Buffer Occupancy = 48
latency change    = 0.157509
throughput change = 0.089529
Class 0:
Packet latency average = 40.5557
	minimum = 8
	maximum = 1167
	95th percentile = 148.5
	99th percentile = 384.5
Network latency average = 37.9303
	minimum = 8
	maximum = 1167
	95th percentile = 132.5
	99th percentile = 372.5
Slowest packet = 79883
Flit latency average = 37.9262
	minimum = 8
	maximum = 1167
	95th percentile = 132.5
	99th percentile = 372.5
Slowest flit = 79883
Fragmentation average = 0
	minimum = 0
	maximum = 0
Injected packet rate average = 0.584709
	minimum = 0.578857 (at node 2)
	maximum = 0.591524 (at node 3)
Accepted packet rate average = 0.582963
	minimum = 0.57581 (at node 7)
	maximum = 0.59081 (at node 5)
Injected flit rate average = 0.584709
	minimum = 0.578857 (at node 2)
	maximum = 0.591524 (at node 3)
Accepted flit rate average= 0.582963
	minimum = 0.57581 (at node 7)
	maximum = 0.59081 (at node 5)
Injected packet length average = 1
Accepted packet length average = 1
Total in-flight flits = 348 (348 measured)
====== Peak Queue Occupancy Statistics (Absolute Max) ======
  Overall Max VC Occupancy = 1
  Overall Max Buffer Occupancy = 48
latency change    = 0.127871
throughput change = 0.0625794
Class 0:
Packet latency average = 44.6577
	minimum = 8
	maximum = 1167
	95th percentile = 170.5
	99th percentile = 432.5
Network latency average = 40.2115
	minimum = 8
	maximum = 1167
	95th percentile = 144.5
	99th percentile = 383.5
Slowest packet = 79883
Flit latency average = 40.2077
	minimum = 8
	maximum = 1167
	95th percentile = 144.5
	99th percentile = 383.5
Slowest flit = 79883
Fragmentation average = 0
	minimum = 0
	maximum = 0
Injected packet rate average = 0.610148
	minimum = 0.596625 (at node 8)
	maximum = 0.617125 (at node 3)
Accepted packet rate average = 0.6085
	minimum = 0.592083 (at node 3)
	maximum = 0.616917 (at node 5)
Injected flit rate average = 0.610148
	minimum = 0.596625 (at node 8)
	maximum = 0.617125 (at node 3)
Accepted flit rate average= 0.6085
	minimum = 0.592083 (at node 3)
	maximum = 0.616917 (at node 5)
Injected packet length average = 1
Accepted packet length average = 1
Total in-flight flits = 373 (373 measured)
====== Peak Queue Occupancy Statistics (Absolute Max) ======
  Overall Max VC Occupancy = 1
  Overall Max Buffer Occupancy = 48
latency change    = 0.0918535
throughput change = 0.0419672
Class 0:
Packet latency average = 53.4714
	minimum = 8
	maximum = 1461
	95th percentile = 246.5
	99th percentile = 496.5
Network latency average = 42.8201
	minimum = 8
	maximum = 1167
	95th percentile = 163.5
	99th percentile = 400.5
Slowest packet = 79883
Flit latency average = 42.8166
	minimum = 8
	maximum = 1167
	95th percentile = 163.5
	99th percentile = 400.5
Slowest flit = 79883
Fragmentation average = 0
	minimum = 0
	maximum = 0
Injected packet rate average = 0.631309
	minimum = 0.619519 (at node 8)
	maximum = 0.637 (at node 3)
Accepted packet rate average = 0.629753
	minimum = 0.617185 (at node 3)
	maximum = 0.636741 (at node 5)
Injected flit rate average = 0.631309
	minimum = 0.619519 (at node 8)
	maximum = 0.637 (at node 3)
Accepted flit rate average= 0.629753
	minimum = 0.617185 (at node 3)
	maximum = 0.636741 (at node 5)
Injected packet length average = 1
Accepted packet length average = 1
Total in-flight flits = 395 (395 measured)
====== Peak Queue Occupancy Statistics (Absolute Max) ======
  Overall Max VC Occupancy = 1
  Overall Max Buffer Occupancy = 48
latency change    = 0.164831
throughput change = 0.0337483
Class 0:
Packet latency average = 59.1917
	minimum = 8
	maximum = 1461
	95th percentile = 278.5
	99th percentile = 512.5
Network latency average = 45.2873
	minimum = 8
	maximum = 1328
	95th percentile = 176.5
	99th percentile = 425.5
Slowest packet = 79883
Flit latency average = 45.2839
	minimum = 8
	maximum = 1328
	95th percentile = 176.5
	99th percentile = 425.5
Slowest flit = 156000
Fragmentation average = 0
	minimum = 0
	maximum = 0
Injected packet rate average = 0.646867
	minimum = 0.6295 (at node 8)
	maximum = 0.653267 (at node 3)
Accepted packet rate average = 0.645515
	minimum = 0.627967 (at node 3)
	maximum = 0.653067 (at node 5)
Injected flit rate average = 0.646867
	minimum = 0.6295 (at node 8)
	maximum = 0.653267 (at node 3)
Accepted flit rate average= 0.645515
	minimum = 0.627967 (at node 3)
	maximum = 0.653067 (at node 5)
Injected packet length average = 1
Accepted packet length average = 1
Total in-flight flits = 383 (383 measured)
====== Peak Queue Occupancy Statistics (Absolute Max) ======
  Overall Max VC Occupancy = 1
  Overall Max Buffer Occupancy = 48
latency change    = 0.0966399
throughput change = 0.0244173
Class 0:
Packet latency average = 68.6042
	minimum = 8
	maximum = 1584
	95th percentile = 330.5
	99th percentile = 640.5
Network latency average = 47.8537
	minimum = 8
	maximum = 1328
	95th percentile = 191.5
	99th percentile = 449.5
Slowest packet = 79883
Flit latency average = 47.8505
	minimum = 8
	maximum = 1328
	95th percentile = 191.5
	99th percentile = 449.5
Slowest flit = 156000
Fragmentation average = 0
	minimum = 0
	maximum = 0
Injected packet rate average = 0.661125
	minimum = 0.65497 (at node 8)
	maximum = 0.666667 (at node 3)
Accepted packet rate average = 0.659626
	minimum = 0.652606 (at node 3)
	maximum = 0.666273 (at node 5)
Injected flit rate average = 0.661125
	minimum = 0.65497 (at node 8)
	maximum = 0.666667 (at node 3)
Accepted flit rate average= 0.659626
	minimum = 0.652606 (at node 3)
	maximum = 0.666273 (at node 5)
Injected packet length average = 1
Accepted packet length average = 1
Total in-flight flits = 462 (462 measured)
====== Peak Queue Occupancy Statistics (Absolute Max) ======
  Overall Max VC Occupancy = 1
  Overall Max Buffer Occupancy = 48
latency change    = 0.1372
throughput change = 0.0213931
Class 0:
Packet latency average = 71.0502
	minimum = 8
	maximum = 1584
	95th percentile = 336.5
	99th percentile = 640.5
Network latency average = 49.3084
	minimum = 8
	maximum = 1328
	95th percentile = 198.5
	99th percentile = 460.5
Slowest packet = 79883
Flit latency average = 49.3054
	minimum = 8
	maximum = 1328
	95th percentile = 198.5
	99th percentile = 460.5
Slowest flit = 156000
Fragmentation average = 0
	minimum = 0
	maximum = 0
Injected packet rate average = 0.672975
	minimum = 0.661583 (at node 8)
	maximum = 0.676722 (at node 6)
Accepted packet rate average = 0.67175
	minimum = 0.659694 (at node 3)
	maximum = 0.675917 (at node 5)
Injected flit rate average = 0.672975
	minimum = 0.661583 (at node 8)
	maximum = 0.676722 (at node 6)
Accepted flit rate average= 0.67175
	minimum = 0.659694 (at node 3)
	maximum = 0.675917 (at node 5)
Injected packet length average = 1
Accepted packet length average = 1
Total in-flight flits = 414 (414 measured)
====== Peak Queue Occupancy Statistics (Absolute Max) ======
  Overall Max VC Occupancy = 1
  Overall Max Buffer Occupancy = 48
latency change    = 0.0344261
throughput change = 0.018048
Class 0:
Packet latency average = 78.1145
	minimum = 8
	maximum = 1602
	95th percentile = 367.5
	99th percentile = 659.5
Network latency average = 51.4142
	minimum = 8
	maximum = 1449
	95th percentile = 209.5
	99th percentile = 471.5
Slowest packet = 79883
Flit latency average = 51.4114
	minimum = 8
	maximum = 1449
	95th percentile = 209.5
	99th percentile = 471.5
Slowest flit = 216552
Fragmentation average = 0
	minimum = 0
	maximum = 0
Injected packet rate average = 0.683405
	minimum = 0.680256 (at node 8)
	maximum = 0.685949 (at node 6)
Accepted packet rate average = 0.681957
	minimum = 0.677385 (at node 3)
	maximum = 0.68541 (at node 5)
Injected flit rate average = 0.683405
	minimum = 0.680256 (at node 8)
	maximum = 0.685949 (at node 6)
Accepted flit rate average= 0.681957
	minimum = 0.677385 (at node 3)
	maximum = 0.68541 (at node 5)
Injected packet length average = 1
Accepted packet length average = 1
Total in-flight flits = 525 (525 measured)
====== Peak Queue Occupancy Statistics (Absolute Max) ======
  Overall Max VC Occupancy = 1
  Overall Max Buffer Occupancy = 48
latency change    = 0.0904346
throughput change = 0.0149676
Class 0:
Packet latency average = 79.836
	minimum = 8
	maximum = 1602
	95th percentile = 366.5
	99th percentile = 663.5
Network latency average = 52.6026
	minimum = 8
	maximum = 1449
	95th percentile = 213.5
	99th percentile = 484.5
Slowest packet = 79883
Flit latency average = 52.5999
	minimum = 8
	maximum = 1449
	95th percentile = 213.5
	99th percentile = 484.5
Slowest flit = 216552
Fragmentation average = 0
	minimum = 0
	maximum = 0
Injected packet rate average = 0.691878
	minimum = 0.689405 (at node 1)
	maximum = 0.694524 (at node 6)
Accepted packet rate average = 0.690638
	minimum = 0.68781 (at node 7)
	maximum = 0.693857 (at node 5)
Injected flit rate average = 0.691878
	minimum = 0.689405 (at node 1)
	maximum = 0.694524 (at node 6)
Accepted flit rate average= 0.690638
	minimum = 0.68781 (at node 7)
	maximum = 0.693857 (at node 5)
Injected packet length average = 1
Accepted packet length average = 1
Total in-flight flits = 486 (486 measured)
====== Peak Queue Occupancy Statistics (Absolute Max) ======
  Overall Max VC Occupancy = 1
  Overall Max Buffer Occupancy = 48
latency change    = 0.0215636
throughput change = 0.0125685
Class 0:
Packet latency average = 78.3802
	minimum = 8
	maximum = 1602
	95th percentile = 357.5
	99th percentile = 652.5
Network latency average = 52.6718
	minimum = 8
	maximum = 1449
	95th percentile = 213.5
	99th percentile = 482.5
Slowest packet = 79883
Flit latency average = 52.6692
	minimum = 8
	maximum = 1449
	95th percentile = 213.5
	99th percentile = 482.5
Slowest flit = 216552
Fragmentation average = 0
	minimum = 0
	maximum = 0
Injected packet rate average = 0.699104
	minimum = 0.697533 (at node 0)
	maximum = 0.701333 (at node 6)
Accepted packet rate average = 0.69817
	minimum = 0.696333 (at node 7)
	maximum = 0.700556 (at node 5)
Injected flit rate average = 0.699104
	minimum = 0.697533 (at node 0)
	maximum = 0.701333 (at node 6)
Accepted flit rate average= 0.69817
	minimum = 0.696333 (at node 7)
	maximum = 0.700556 (at node 5)
Injected packet length average = 1
Accepted packet length average = 1
Total in-flight flits = 396 (396 measured)
====== Peak Queue Occupancy Statistics (Absolute Max) ======
  Overall Max VC Occupancy = 1
  Overall Max Buffer Occupancy = 48
latency change    = 0.0185734
throughput change = 0.0107893
Class 0:
Packet latency average = 76.5915
	minimum = 8
	maximum = 1602
	95th percentile = 350.5
	99th percentile = 640.5
Network latency average = 52.5262
	minimum = 8
	maximum = 1449
	95th percentile = 213.5
	99th percentile = 476.5
Slowest packet = 79883
Flit latency average = 52.5239
	minimum = 8
	maximum = 1449
	95th percentile = 213.5
	99th percentile = 476.5
Slowest flit = 216552
Fragmentation average = 0
	minimum = 0
	maximum = 0
Injected packet rate average = 0.705329
	minimum = 0.704125 (at node 4)
	maximum = 0.706937 (at node 6)
Accepted packet rate average = 0.704641
	minimum = 0.703125 (at node 7)
	maximum = 0.706771 (at node 5)
Injected flit rate average = 0.705329
	minimum = 0.704125 (at node 4)
	maximum = 0.706937 (at node 6)
Accepted flit rate average= 0.704641
	minimum = 0.703125 (at node 7)
	maximum = 0.706771 (at node 5)
Injected packet length average = 1
Accepted packet length average = 1
Total in-flight flits = 314 (314 measured)
====== Peak Queue Occupancy Statistics (Absolute Max) ======
  Overall Max VC Occupancy = 1
  Overall Max Buffer Occupancy = 48
latency change    = 0.0233538
throughput change = 0.00918316
Draining all recorded packets ...
Draining remaining packets ...
Time taken is 54582 cycles
====== Overall Traffic Statistics ======
====== Traffic class 0 ======
Packet latency average = 76.6657 (1 samples)
	minimum = 8 (1 samples)
	maximum = 1602 (1 samples)
Network latency average = 52.6201 (1 samples)
	minimum = 8 (1 samples)
	maximum = 1449 (1 samples)
Flit latency average = 52.5144 (1 samples)
	minimum = 8 (1 samples)
	maximum = 1449 (1 samples)
Fragmentation average = 0 (1 samples)
	minimum = 0 (1 samples)
	maximum = 0 (1 samples)
Injected packet rate average = 0.705329 (1 samples)
	minimum = 0.704125 (1 samples)
	maximum = 0.706937 (1 samples)
Accepted packet rate average = 0.704641 (1 samples)
	minimum = 0.703125 (1 samples)
	maximum = 0.706771 (1 samples)
Injected flit rate average = 0.705329 (1 samples)
	minimum = 0.704125 (1 samples)
	maximum = 0.706937 (1 samples)
Accepted flit rate average = 0.704641 (1 samples)
	minimum = 0.703125 (1 samples)
	maximum = 0.706771 (1 samples)
Injected packet size average = 1 (1 samples)
Accepted packet size average = 1 (1 samples)
Hops average = 3.3674 (1 samples)
Total run time 16.2399
====== Hybrid Routing Split Statistics ======
XY packets = 130378
Racke packets = 185682
XY fraction = 0.41251
Racke fraction = 0.58749
Flow (0 -> 4) alpha=0.90063 xy_packets=8748 racke_packets=26328 racke_fraction=0.750599
Flow (1 -> 7) alpha=0.895956 xy_packets=8490 racke_packets=26519 racke_fraction=0.757491
Flow (2 -> 6) alpha=0.890113 xy_packets=7811 racke_packets=27308 racke_fraction=0.777585
Flow (3 -> 5) alpha=0.233084 xy_packets=23703 racke_packets=11499 racke_fraction=0.326658
Flow (4 -> 1) alpha=0.895956 xy_packets=8895 racke_packets=26172 racke_fraction=0.746343
Flow (5 -> 2) alpha=0.233096 xy_packets=22828 racke_packets=12296 racke_fraction=0.350074
Flow (6 -> 0) alpha=0.845733 xy_packets=13187 racke_packets=21983 racke_fraction=0.62505
Flow (7 -> 8) alpha=0 xy_packets=24075 racke_packets=11122 racke_fraction=0.315993
Flow (8 -> 3) alpha=0.845735 xy_packets=12641 racke_packets=22455 racke_fraction=0.639817
====== Hybrid Routing Window Statistics ======
Window [0,3000) xy_packets=2719 racke_packets=0 xy_fraction=1
Window [3000,6000) xy_packets=5363 racke_packets=0 xy_fraction=1
Window [6000,9000) xy_packets=8134 racke_packets=0 xy_fraction=1
Window [9000,12000) xy_packets=10772 racke_packets=0 xy_fraction=1
Window [12000,15000) xy_packets=13531 racke_packets=0 xy_fraction=1
Window [15000,18000) xy_packets=12257 racke_packets=3832 xy_fraction=0.761825
Window [18000,21000) xy_packets=10959 racke_packets=7926 xy_fraction=0.580302
Window [21000,24000) xy_packets=7931 racke_packets=13617 xy_fraction=0.368062
Window [24000,27000) xy_packets=6426 racke_packets=15126 xy_fraction=0.298163
Window [27000,30000) xy_packets=7376 racke_packets=13905 xy_fraction=0.3466
Window [30000,33000) xy_packets=5160 racke_packets=16456 xy_fraction=0.238712
Window [33000,36000) xy_packets=5426 racke_packets=15821 xy_fraction=0.255377
Window [36000,39000) xy_packets=5233 racke_packets=16466 xy_fraction=0.241163
Window [39000,42000) xy_packets=4776 racke_packets=16914 xy_fraction=0.220194
Window [42000,45000) xy_packets=4265 racke_packets=17566 xy_fraction=0.195364
Window [45000,48000) xy_packets=5289 racke_packets=16366 xy_fraction=0.244239
Window [48000,51000) xy_packets=6860 racke_packets=14748 xy_fraction=0.317475
Window [51000,54000) xy_packets=6761 racke_packets=14803 xy_fraction=0.313532
Window [54000,57000) xy_packets=1140 racke_packets=2136 xy_fraction=0.347985

