BEGIN Configuration File: D:\noc_huawei\noc\booksim2-noc_speedup_study\booksim2-noc_speedup_study\tests\data\results\random_perm_growth_models_perm_p3_peak_0p8\tmp_configs\ordered_fill_racke_tree_s2202.config
num_vcs     = 48;
vc_buf_size = 16;
wait_for_tail_credit = 1;

vc_allocator = islip;
sw_allocator = islip;
alloc_iters  = 16;

credit_delay   = 2;
routing_delay  = 0;
vc_alloc_delay = 1;
sw_alloc_delay = 1;
st_final_delay = 1;

input_speedup     = 1;
output_speedup    = 1;
internal_speedup  = 2.0;

sim_type = latency;
latency_thres  = 100000.0;
sim_count      = 1;
queue_sample_period_cycles = 0;

topology = mesh;
k  = 3;
n  = 2;

hybrid_transition_mode = linear_prob;
hybrid_xy_low_threshold = 0.35;
hybrid_racke_high_threshold = 0.65;
hybrid_buffer_soft_threshold = 0.50;
hybrid_buffer_hard_threshold = 0.85;
hybrid_buffer_release_threshold = 0.35;
hybrid_rate_soft_threshold = 0.55;
hybrid_rate_hard_threshold = 0.90;
hybrid_rate_weight = 0.25;
hybrid_congestion_alpha = 0.25;
hybrid_racke_increase_step = 0.25;
hybrid_racke_decrease_step = 0.10;
hybrid_epoch_cycles = 200;
hybrid_hold_cycles = 600;
hybrid_enable_midflight_override = 1;
hybrid_feedback_delay_per_hop = 1;
hybrid_flow_increase_step = 0.20;
hybrid_flow_decrease_step = 0.08;
hybrid_flow_hard_threshold = 0.95;

packet_size = 1;

scheduled_injection_rates = {0.10,0.20,0.30};
scheduled_phase_cycles = {1000,1000,1000};
scheduled_default_phase_cycles = 1000;

custom_perm_array = {4,7,6,5,1,2,0,8,3};
warmup_periods = 2;
seed = 2202;
hybrid_flow_hotspot_alpha = 0.85;
injection_process = ordered_fill;
perm_seed = 2202;
ordered_injection_phase_cycles = {3000,3000,3000,3000,3000,3000,3000,3000,3000,3000};
routing_function = racke_tree;
injection_rate = 0.8;
max_samples = 18;
ordered_injection_source_order = {4,7,6,5,1,2,0,8,3};
hybrid_flow_hotspot_threshold = 1.1;
ordered_injection_flow_peak_rate = 0.8;
ordered_injection_coefficients = {0.125,0.25,0.375,0.5,0.625,0.75,0.875,1.0,1.0,1.0};
hybrid_stats_window_cycles = 3000;
traffic = custom_perm;
sample_period = 3000;

END Configuration File: D:\noc_huawei\noc\booksim2-noc_speedup_study\booksim2-noc_speedup_study\tests\data\results\random_perm_growth_models_perm_p3_peak_0p8\tmp_configs\ordered_fill_racke_tree_s2202.config
Class 0:
Packet latency average = 10.3506
	minimum = 8
	maximum = 21
	95th percentile = 14.5
	99th percentile = 20.5
Network latency average = 10.3506
	minimum = 8
	maximum = 21
	95th percentile = 14.5
	99th percentile = 20.5
Slowest packet = 1403
Flit latency average = 10.3506
	minimum = 8
	maximum = 21
	95th percentile = 14.5
	99th percentile = 20.5
Slowest flit = 1403
Fragmentation average = 0
	minimum = 0
	maximum = 0
Injected packet rate average = 0.100444
	minimum = 0 (at node 0)
	maximum = 0.795667 (at node 4)
Accepted packet rate average = 0.100037
	minimum = 0 (at node 0)
	maximum = 0.792667 (at node 1)
Injected flit rate average = 0.100444
	minimum = 0 (at node 0)
	maximum = 0.795667 (at node 4)
Accepted flit rate average= 0.100037
	minimum = 0 (at node 0)
	maximum = 0.792667 (at node 1)
Injected packet length average = 1
Accepted packet length average = 1
Total in-flight flits = 11 (0 measured)
====== Peak Queue Occupancy Statistics (Absolute Max) ======
  Overall Max VC Occupancy = 1
  Overall Max Buffer Occupancy = 2
latency change    = 1
throughput change = 1
Class 0:
Packet latency average = 10.9642
	minimum = 8
	maximum = 23
	95th percentile = 20.5
	99th percentile = 23.5
Network latency average = 10.9642
	minimum = 8
	maximum = 23
	95th percentile = 20.5
	99th percentile = 23.5
Slowest packet = 2733
Flit latency average = 10.9642
	minimum = 8
	maximum = 23
	95th percentile = 20.5
	99th percentile = 23.5
Slowest flit = 2733
Fragmentation average = 0
	minimum = 0
	maximum = 0
Injected packet rate average = 0.149444
	minimum = 0 (at node 0)
	maximum = 0.7935 (at node 4)
Accepted packet rate average = 0.149111
	minimum = 0 (at node 2)
	maximum = 0.792167 (at node 1)
Injected flit rate average = 0.149444
	minimum = 0 (at node 0)
	maximum = 0.7935 (at node 4)
Accepted flit rate average= 0.149111
	minimum = 0 (at node 2)
	maximum = 0.792167 (at node 1)
Injected packet length average = 1
Accepted packet length average = 1
Total in-flight flits = 18 (0 measured)
====== Peak Queue Occupancy Statistics (Absolute Max) ======
  Overall Max VC Occupancy = 1
  Overall Max Buffer Occupancy = 2
latency change    = 0.0559658
throughput change = 0.329111
Warmed up ...Time used is 6000 cycles
Class 0:
Packet latency average = 12.2665
	minimum = 8
	maximum = 26
	95th percentile = 23.5
	99th percentile = 24.5
Network latency average = 12.2665
	minimum = 8
	maximum = 26
	95th percentile = 23.5
	99th percentile = 24.5
Slowest packet = 8517
Flit latency average = 12.2666
	minimum = 8
	maximum = 26
	95th percentile = 23.5
	99th percentile = 24.5
Slowest flit = 8517
Fragmentation average = 0
	minimum = 0
	maximum = 0
Injected packet rate average = 0.299333
	minimum = 0 (at node 0)
	maximum = 0.807667 (at node 6)
Accepted packet rate average = 0.298667
	minimum = 0 (at node 3)
	maximum = 0.804333 (at node 0)
Injected flit rate average = 0.299333
	minimum = 0 (at node 0)
	maximum = 0.807667 (at node 6)
Accepted flit rate average= 0.298667
	minimum = 0 (at node 3)
	maximum = 0.804333 (at node 0)
Injected packet length average = 1
Accepted packet length average = 1
Total in-flight flits = 36 (36 measured)
====== Peak Queue Occupancy Statistics (Absolute Max) ======
  Overall Max VC Occupancy = 1
  Overall Max Buffer Occupancy = 2
latency change    = 0.106162
throughput change = 0.500744
Class 0:
Packet latency average = 12.3956
	minimum = 8
	maximum = 26
	95th percentile = 22.5
	99th percentile = 24.5
Network latency average = 12.3956
	minimum = 8
	maximum = 26
	95th percentile = 22.5
	99th percentile = 24.5
Slowest packet = 8517
Flit latency average = 12.3955
	minimum = 8
	maximum = 26
	95th percentile = 22.5
	99th percentile = 24.5
Slowest flit = 8517
Fragmentation average = 0
	minimum = 0
	maximum = 0
Injected packet rate average = 0.3495
	minimum = 0 (at node 0)
	maximum = 0.806833 (at node 6)
Accepted packet rate average = 0.348907
	minimum = 0 (at node 3)
	maximum = 0.8045 (at node 0)
Injected flit rate average = 0.3495
	minimum = 0 (at node 0)
	maximum = 0.806833 (at node 6)
Accepted flit rate average= 0.348907
	minimum = 0 (at node 3)
	maximum = 0.8045 (at node 0)
Injected packet length average = 1
Accepted packet length average = 1
Total in-flight flits = 50 (50 measured)
====== Peak Queue Occupancy Statistics (Absolute Max) ======
  Overall Max VC Occupancy = 1
  Overall Max Buffer Occupancy = 2
latency change    = 0.010416
throughput change = 0.143994
Class 0:
Packet latency average = 12.7537
	minimum = 8
	maximum = 28
	95th percentile = 22.5
	99th percentile = 25.5
Network latency average = 12.7537
	minimum = 8
	maximum = 28
	95th percentile = 22.5
	99th percentile = 25.5
Slowest packet = 37228
Flit latency average = 12.7535
	minimum = 8
	maximum = 28
	95th percentile = 22.5
	99th percentile = 25.5
Slowest flit = 37228
Fragmentation average = 0
	minimum = 0
	maximum = 0
Injected packet rate average = 0.399765
	minimum = 0 (at node 0)
	maximum = 0.803222 (at node 6)
Accepted packet rate average = 0.399284
	minimum = 0 (at node 3)
	maximum = 0.801778 (at node 0)
Injected flit rate average = 0.399765
	minimum = 0 (at node 0)
	maximum = 0.803222 (at node 6)
Accepted flit rate average= 0.399284
	minimum = 0 (at node 3)
	maximum = 0.801778 (at node 0)
Injected packet length average = 1
Accepted packet length average = 1
Total in-flight flits = 57 (57 measured)
====== Peak Queue Occupancy Statistics (Absolute Max) ======
  Overall Max VC Occupancy = 1
  Overall Max Buffer Occupancy = 2
latency change    = 0.028083
throughput change = 0.126167
Class 0:
Packet latency average = 13.0932
	minimum = 8
	maximum = 28
	95th percentile = 22.5
	99th percentile = 25.5
Network latency average = 13.0932
	minimum = 8
	maximum = 28
	95th percentile = 22.5
	99th percentile = 25.5
Slowest packet = 37228
Flit latency average = 13.0929
	minimum = 8
	maximum = 28
	95th percentile = 22.5
	99th percentile = 25.5
Slowest flit = 37228
Fragmentation average = 0
	minimum = 0
	maximum = 0
Injected packet rate average = 0.448917
	minimum = 0 (at node 3)
	maximum = 0.802083 (at node 6)
Accepted packet rate average = 0.448352
	minimum = 0 (at node 3)
	maximum = 0.801917 (at node 8)
Injected flit rate average = 0.448917
	minimum = 0 (at node 3)
	maximum = 0.802083 (at node 6)
Accepted flit rate average= 0.448352
	minimum = 0 (at node 3)
	maximum = 0.801917 (at node 8)
Injected packet length average = 1
Accepted packet length average = 1
Total in-flight flits = 79 (79 measured)
====== Peak Queue Occupancy Statistics (Absolute Max) ======
  Overall Max VC Occupancy = 1
  Overall Max Buffer Occupancy = 3
latency change    = 0.0259227
throughput change = 0.109441
Class 0:
Packet latency average = 13.4822
	minimum = 8
	maximum = 29
	95th percentile = 22.5
	99th percentile = 25.5
Network latency average = 13.4822
	minimum = 8
	maximum = 29
	95th percentile = 22.5
	99th percentile = 25.5
Slowest packet = 69495
Flit latency average = 13.4819
	minimum = 8
	maximum = 29
	95th percentile = 22.5
	99th percentile = 25.5
Slowest flit = 69495
Fragmentation average = 0
	minimum = 0
	maximum = 0
Injected packet rate average = 0.498911
	minimum = 0 (at node 3)
	maximum = 0.8018 (at node 6)
Accepted packet rate average = 0.498363
	minimum = 0 (at node 5)
	maximum = 0.801533 (at node 8)
Injected flit rate average = 0.498911
	minimum = 0 (at node 3)
	maximum = 0.8018 (at node 6)
Accepted flit rate average= 0.498363
	minimum = 0 (at node 5)
	maximum = 0.801533 (at node 8)
Injected packet length average = 1
Accepted packet length average = 1
Total in-flight flits = 92 (92 measured)
====== Peak Queue Occupancy Statistics (Absolute Max) ======
  Overall Max VC Occupancy = 1
  Overall Max Buffer Occupancy = 3
latency change    = 0.028856
throughput change = 0.100351
Class 0:
Packet latency average = 13.7939
	minimum = 8
	maximum = 30
	95th percentile = 22.5
	99th percentile = 25.5
Network latency average = 13.7939
	minimum = 8
	maximum = 30
	95th percentile = 22.5
	99th percentile = 25.5
Slowest packet = 80205
Flit latency average = 13.7937
	minimum = 8
	maximum = 30
	95th percentile = 22.5
	99th percentile = 25.5
Slowest flit = 80205
Fragmentation average = 0
	minimum = 0
	maximum = 0
Injected packet rate average = 0.549438
	minimum = 0.134667 (at node 3)
	maximum = 0.801 (at node 7)
Accepted packet rate average = 0.548846
	minimum = 0.133889 (at node 5)
	maximum = 0.801111 (at node 8)
Injected flit rate average = 0.549438
	minimum = 0.134667 (at node 3)
	maximum = 0.801 (at node 7)
Accepted flit rate average= 0.548846
	minimum = 0.133889 (at node 5)
	maximum = 0.801111 (at node 8)
Injected packet length average = 1
Accepted packet length average = 1
Total in-flight flits = 114 (114 measured)
====== Peak Queue Occupancy Statistics (Absolute Max) ======
  Overall Max VC Occupancy = 1
  Overall Max Buffer Occupancy = 3
latency change    = 0.0226006
throughput change = 0.0919798
Class 0:
Packet latency average = 13.9863
	minimum = 8
	maximum = 31
	95th percentile = 22.5
	99th percentile = 25.5
Network latency average = 13.9863
	minimum = 8
	maximum = 31
	95th percentile = 22.5
	99th percentile = 25.5
Slowest packet = 117865
Flit latency average = 13.9861
	minimum = 8
	maximum = 31
	95th percentile = 22.5
	99th percentile = 25.5
Slowest flit = 117865
Fragmentation average = 0
	minimum = 0
	maximum = 0
Injected packet rate average = 0.584942
	minimum = 0.229286 (at node 3)
	maximum = 0.800714 (at node 7)
Accepted packet rate average = 0.584439
	minimum = 0.228571 (at node 5)
	maximum = 0.800762 (at node 8)
Injected flit rate average = 0.584942
	minimum = 0.229286 (at node 3)
	maximum = 0.800714 (at node 7)
Accepted flit rate average= 0.584439
	minimum = 0.228571 (at node 5)
	maximum = 0.800762 (at node 8)
Injected packet length average = 1
Accepted packet length average = 1
Total in-flight flits = 113 (113 measured)
====== Peak Queue Occupancy Statistics (Absolute Max) ======
  Overall Max VC Occupancy = 1
  Overall Max Buffer Occupancy = 3
latency change    = 0.0137561
throughput change = 0.0609019
Class 0:
Packet latency average = 14.1124
	minimum = 8
	maximum = 31
	95th percentile = 22.5
	99th percentile = 26.5
Network latency average = 14.1124
	minimum = 8
	maximum = 31
	95th percentile = 22.5
	99th percentile = 26.5
Slowest packet = 117865
Flit latency average = 14.1122
	minimum = 8
	maximum = 31
	95th percentile = 22.5
	99th percentile = 26.5
Slowest flit = 117865
Fragmentation average = 0
	minimum = 0
	maximum = 0
Injected packet rate average = 0.611676
	minimum = 0.302833 (at node 3)
	maximum = 0.799917 (at node 6)
Accepted packet rate average = 0.611255
	minimum = 0.30225 (at node 5)
	maximum = 0.799833 (at node 8)
Injected flit rate average = 0.611676
	minimum = 0.302833 (at node 3)
	maximum = 0.799917 (at node 6)
Accepted flit rate average= 0.611255
	minimum = 0.30225 (at node 5)
	maximum = 0.799833 (at node 8)
Injected packet length average = 1
Accepted packet length average = 1
Total in-flight flits = 109 (109 measured)
====== Peak Queue Occupancy Statistics (Absolute Max) ======
  Overall Max VC Occupancy = 1
  Overall Max Buffer Occupancy = 3
latency change    = 0.00893469
throughput change = 0.0438696
Class 0:
Packet latency average = 14.1986
	minimum = 8
	maximum = 31
	95th percentile = 22.5
	99th percentile = 26.5
Network latency average = 14.1986
	minimum = 8
	maximum = 31
	95th percentile = 22.5
	99th percentile = 26.5
Slowest packet = 117865
Flit latency average = 14.1984
	minimum = 8
	maximum = 31
	95th percentile = 22.5
	99th percentile = 26.5
Slowest flit = 117865
Fragmentation average = 0
	minimum = 0
	maximum = 0
Injected packet rate average = 0.632012
	minimum = 0.357222 (at node 3)
	maximum = 0.800333 (at node 7)
Accepted packet rate average = 0.631634
	minimum = 0.356778 (at node 5)
	maximum = 0.80037 (at node 8)
Injected flit rate average = 0.632012
	minimum = 0.357222 (at node 3)
	maximum = 0.800333 (at node 7)
Accepted flit rate average= 0.631634
	minimum = 0.356778 (at node 5)
	maximum = 0.80037 (at node 8)
Injected packet length average = 1
Accepted packet length average = 1
Total in-flight flits = 110 (110 measured)
====== Peak Queue Occupancy Statistics (Absolute Max) ======
  Overall Max VC Occupancy = 1
  Overall Max Buffer Occupancy = 3
latency change    = 0.00606806
throughput change = 0.0322641
Class 0:
Packet latency average = 14.2723
	minimum = 8
	maximum = 31
	95th percentile = 23.5
	99th percentile = 26.5
Network latency average = 14.2723
	minimum = 8
	maximum = 31
	95th percentile = 23.5
	99th percentile = 26.5
Slowest packet = 117865
Flit latency average = 14.2721
	minimum = 8
	maximum = 31
	95th percentile = 23.5
	99th percentile = 26.5
Slowest flit = 117865
Fragmentation average = 0
	minimum = 0
	maximum = 0
Injected packet rate average = 0.648715
	minimum = 0.401 (at node 3)
	maximum = 0.800733 (at node 7)
Accepted packet rate average = 0.648441
	minimum = 0.400633 (at node 5)
	maximum = 0.800833 (at node 8)
Injected flit rate average = 0.648715
	minimum = 0.401 (at node 3)
	maximum = 0.800733 (at node 7)
Accepted flit rate average= 0.648441
	minimum = 0.400633 (at node 5)
	maximum = 0.800833 (at node 8)
Injected packet length average = 1
Accepted packet length average = 1
Total in-flight flits = 92 (92 measured)
====== Peak Queue Occupancy Statistics (Absolute Max) ======
  Overall Max VC Occupancy = 1
  Overall Max Buffer Occupancy = 3
latency change    = 0.00516463
throughput change = 0.0259191
Draining all recorded packets ...
Draining remaining packets ...
Time taken is 36050 cycles
====== Overall Traffic Statistics ======
====== Traffic class 0 ======
Packet latency average = 14.2736 (1 samples)
	minimum = 8 (1 samples)
	maximum = 31 (1 samples)
Network latency average = 14.2736 (1 samples)
	minimum = 8 (1 samples)
	maximum = 31 (1 samples)
Flit latency average = 14.2738 (1 samples)
	minimum = 8 (1 samples)
	maximum = 31 (1 samples)
Fragmentation average = 0 (1 samples)
	minimum = 0 (1 samples)
	maximum = 0 (1 samples)
Injected packet rate average = 0.648715 (1 samples)
	minimum = 0.401 (1 samples)
	maximum = 0.800733 (1 samples)
Accepted packet rate average = 0.648441 (1 samples)
	minimum = 0.400633 (1 samples)
	maximum = 0.800833 (1 samples)
Injected flit rate average = 0.648715 (1 samples)
	minimum = 0.401 (1 samples)
	maximum = 0.800733 (1 samples)
Accepted flit rate average = 0.648441 (1 samples)
	minimum = 0.400633 (1 samples)
	maximum = 0.800833 (1 samples)
Injected packet size average = 1 (1 samples)
Accepted packet size average = 1 (1 samples)
Hops average = 3.59066 (1 samples)
Total run time 5.81266

