BEGIN Configuration File: D:\noc_huawei\noc\booksim2-noc_speedup_study\booksim2-noc_speedup_study\tests\data\results\random_perm_growth_models_perm_p3_peak_0p8\tmp_configs\ordered_fill_racke_tree_s2201.config
num_vcs     = 48;
vc_buf_size = 16;
wait_for_tail_credit = 1;

vc_allocator = islip;
sw_allocator = islip;
alloc_iters  = 16;

credit_delay   = 2;
routing_delay  = 0;
vc_alloc_delay = 1;
sw_alloc_delay = 1;
st_final_delay = 1;

input_speedup     = 1;
output_speedup    = 1;
internal_speedup  = 2.0;

sim_type = latency;
latency_thres  = 100000.0;
sim_count      = 1;
queue_sample_period_cycles = 0;

topology = mesh;
k  = 3;
n  = 2;

hybrid_transition_mode = linear_prob;
hybrid_xy_low_threshold = 0.35;
hybrid_racke_high_threshold = 0.65;
hybrid_buffer_soft_threshold = 0.50;
hybrid_buffer_hard_threshold = 0.85;
hybrid_buffer_release_threshold = 0.35;
hybrid_rate_soft_threshold = 0.55;
hybrid_rate_hard_threshold = 0.90;
hybrid_rate_weight = 0.25;
hybrid_congestion_alpha = 0.25;
hybrid_racke_increase_step = 0.25;
hybrid_racke_decrease_step = 0.10;
hybrid_epoch_cycles = 200;
hybrid_hold_cycles = 600;
hybrid_enable_midflight_override = 1;
hybrid_feedback_delay_per_hop = 1;
hybrid_flow_increase_step = 0.20;
hybrid_flow_decrease_step = 0.08;
hybrid_flow_hard_threshold = 0.95;

packet_size = 1;

scheduled_injection_rates = {0.10,0.20,0.30};
scheduled_phase_cycles = {1000,1000,1000};
scheduled_default_phase_cycles = 1000;

custom_perm_array = {4,7,6,5,1,2,0,8,3};
warmup_periods = 2;
seed = 2201;
hybrid_flow_hotspot_alpha = 0.85;
injection_process = ordered_fill;
perm_seed = 2201;
ordered_injection_phase_cycles = {3000,3000,3000,3000,3000,3000,3000,3000,3000,3000};
routing_function = racke_tree;
injection_rate = 0.8;
max_samples = 18;
ordered_injection_source_order = {4,7,6,5,1,2,0,8,3};
hybrid_flow_hotspot_threshold = 1.1;
ordered_injection_flow_peak_rate = 0.8;
ordered_injection_coefficients = {0.125,0.25,0.375,0.5,0.625,0.75,0.875,1.0,1.0,1.0};
hybrid_stats_window_cycles = 3000;
traffic = custom_perm;
sample_period = 3000;

END Configuration File: D:\noc_huawei\noc\booksim2-noc_speedup_study\booksim2-noc_speedup_study\tests\data\results\random_perm_growth_models_perm_p3_peak_0p8\tmp_configs\ordered_fill_racke_tree_s2201.config
Class 0:
Packet latency average = 10.3268
	minimum = 8
	maximum = 20
	95th percentile = 14.5
	99th percentile = 20.5
Network latency average = 10.3268
	minimum = 8
	maximum = 20
	95th percentile = 14.5
	99th percentile = 20.5
Slowest packet = 55
Flit latency average = 10.3268
	minimum = 8
	maximum = 20
	95th percentile = 14.5
	99th percentile = 20.5
Slowest flit = 55
Fragmentation average = 0
	minimum = 0
	maximum = 0
Injected packet rate average = 0.0997778
	minimum = 0 (at node 0)
	maximum = 0.795 (at node 4)
Accepted packet rate average = 0.0994074
	minimum = 0 (at node 0)
	maximum = 0.791667 (at node 1)
Injected flit rate average = 0.0997778
	minimum = 0 (at node 0)
	maximum = 0.795 (at node 4)
Accepted flit rate average= 0.0994074
	minimum = 0 (at node 0)
	maximum = 0.791667 (at node 1)
Injected packet length average = 1
Accepted packet length average = 1
Total in-flight flits = 10 (0 measured)
====== Peak Queue Occupancy Statistics (Absolute Max) ======
  Overall Max VC Occupancy = 1
  Overall Max Buffer Occupancy = 2
latency change    = 1
throughput change = 1
Class 0:
Packet latency average = 10.978
	minimum = 8
	maximum = 24
	95th percentile = 20.5
	99th percentile = 23.5
Network latency average = 10.978
	minimum = 8
	maximum = 24
	95th percentile = 20.5
	99th percentile = 23.5
Slowest packet = 4939
Flit latency average = 10.978
	minimum = 8
	maximum = 24
	95th percentile = 20.5
	99th percentile = 23.5
Slowest flit = 4939
Fragmentation average = 0
	minimum = 0
	maximum = 0
Injected packet rate average = 0.149241
	minimum = 0 (at node 0)
	maximum = 0.793667 (at node 4)
Accepted packet rate average = 0.14887
	minimum = 0 (at node 2)
	maximum = 0.792167 (at node 1)
Injected flit rate average = 0.149241
	minimum = 0 (at node 0)
	maximum = 0.793667 (at node 4)
Accepted flit rate average= 0.14887
	minimum = 0 (at node 2)
	maximum = 0.792167 (at node 1)
Injected packet length average = 1
Accepted packet length average = 1
Total in-flight flits = 20 (0 measured)
====== Peak Queue Occupancy Statistics (Absolute Max) ======
  Overall Max VC Occupancy = 1
  Overall Max Buffer Occupancy = 2
latency change    = 0.0593216
throughput change = 0.332255
Warmed up ...Time used is 6000 cycles
Class 0:
Packet latency average = 12.2891
	minimum = 8
	maximum = 26
	95th percentile = 23.5
	99th percentile = 24.5
Network latency average = 12.2891
	minimum = 8
	maximum = 26
	95th percentile = 23.5
	99th percentile = 24.5
Slowest packet = 10843
Flit latency average = 12.2899
	minimum = 8
	maximum = 26
	95th percentile = 23.5
	99th percentile = 24.5
Slowest flit = 10843
Fragmentation average = 0
	minimum = 0
	maximum = 0
Injected packet rate average = 0.301593
	minimum = 0 (at node 0)
	maximum = 0.809667 (at node 6)
Accepted packet rate average = 0.301111
	minimum = 0 (at node 3)
	maximum = 0.807333 (at node 0)
Injected flit rate average = 0.301593
	minimum = 0 (at node 0)
	maximum = 0.809667 (at node 6)
Accepted flit rate average= 0.301111
	minimum = 0 (at node 3)
	maximum = 0.807333 (at node 0)
Injected packet length average = 1
Accepted packet length average = 1
Total in-flight flits = 33 (33 measured)
====== Peak Queue Occupancy Statistics (Absolute Max) ======
  Overall Max VC Occupancy = 1
  Overall Max Buffer Occupancy = 2
latency change    = 0.106693
throughput change = 0.505597
Class 0:
Packet latency average = 12.3875
	minimum = 8
	maximum = 26
	95th percentile = 22.5
	99th percentile = 24.5
Network latency average = 12.3875
	minimum = 8
	maximum = 26
	95th percentile = 22.5
	99th percentile = 24.5
Slowest packet = 10843
Flit latency average = 12.3877
	minimum = 8
	maximum = 26
	95th percentile = 22.5
	99th percentile = 24.5
Slowest flit = 10843
Fragmentation average = 0
	minimum = 0
	maximum = 0
Injected packet rate average = 0.350685
	minimum = 0 (at node 0)
	maximum = 0.806333 (at node 4)
Accepted packet rate average = 0.350167
	minimum = 0 (at node 3)
	maximum = 0.8065 (at node 1)
Injected flit rate average = 0.350685
	minimum = 0 (at node 0)
	maximum = 0.806333 (at node 4)
Accepted flit rate average= 0.350167
	minimum = 0 (at node 3)
	maximum = 0.8065 (at node 1)
Injected packet length average = 1
Accepted packet length average = 1
Total in-flight flits = 48 (48 measured)
====== Peak Queue Occupancy Statistics (Absolute Max) ======
  Overall Max VC Occupancy = 1
  Overall Max Buffer Occupancy = 2
latency change    = 0.00793745
throughput change = 0.140092
Class 0:
Packet latency average = 12.7424
	minimum = 8
	maximum = 28
	95th percentile = 22.5
	99th percentile = 25.5
Network latency average = 12.7424
	minimum = 8
	maximum = 28
	95th percentile = 22.5
	99th percentile = 25.5
Slowest packet = 30473
Flit latency average = 12.7424
	minimum = 8
	maximum = 28
	95th percentile = 22.5
	99th percentile = 25.5
Slowest flit = 30473
Fragmentation average = 0
	minimum = 0
	maximum = 0
Injected packet rate average = 0.401247
	minimum = 0 (at node 0)
	maximum = 0.806667 (at node 6)
Accepted packet rate average = 0.400778
	minimum = 0 (at node 3)
	maximum = 0.805889 (at node 0)
Injected flit rate average = 0.401247
	minimum = 0 (at node 0)
	maximum = 0.806667 (at node 6)
Accepted flit rate average= 0.400778
	minimum = 0 (at node 3)
	maximum = 0.805889 (at node 0)
Injected packet length average = 1
Accepted packet length average = 1
Total in-flight flits = 58 (58 measured)
====== Peak Queue Occupancy Statistics (Absolute Max) ======
  Overall Max VC Occupancy = 1
  Overall Max Buffer Occupancy = 2
latency change    = 0.027857
throughput change = 0.126282
Class 0:
Packet latency average = 13.0956
	minimum = 8
	maximum = 28
	95th percentile = 22.5
	99th percentile = 25.5
Network latency average = 13.0956
	minimum = 8
	maximum = 28
	95th percentile = 22.5
	99th percentile = 25.5
Slowest packet = 30473
Flit latency average = 13.0954
	minimum = 8
	maximum = 28
	95th percentile = 22.5
	99th percentile = 25.5
Slowest flit = 30473
Fragmentation average = 0
	minimum = 0
	maximum = 0
Injected packet rate average = 0.450269
	minimum = 0 (at node 3)
	maximum = 0.805583 (at node 6)
Accepted packet rate average = 0.449778
	minimum = 0 (at node 3)
	maximum = 0.804917 (at node 0)
Injected flit rate average = 0.450269
	minimum = 0 (at node 3)
	maximum = 0.805583 (at node 6)
Accepted flit rate average= 0.449778
	minimum = 0 (at node 3)
	maximum = 0.804917 (at node 0)
Injected packet length average = 1
Accepted packet length average = 1
Total in-flight flits = 73 (73 measured)
====== Peak Queue Occupancy Statistics (Absolute Max) ======
  Overall Max VC Occupancy = 1
  Overall Max Buffer Occupancy = 2
latency change    = 0.0269648
throughput change = 0.108943
Class 0:
Packet latency average = 13.4811
	minimum = 8
	maximum = 29
	95th percentile = 22.5
	99th percentile = 25.5
Network latency average = 13.4811
	minimum = 8
	maximum = 29
	95th percentile = 22.5
	99th percentile = 25.5
Slowest packet = 68898
Flit latency average = 13.4809
	minimum = 8
	maximum = 29
	95th percentile = 22.5
	99th percentile = 25.5
Slowest flit = 68898
Fragmentation average = 0
	minimum = 0
	maximum = 0
Injected packet rate average = 0.499993
	minimum = 0 (at node 3)
	maximum = 0.805533 (at node 6)
Accepted packet rate average = 0.499496
	minimum = 0 (at node 5)
	maximum = 0.804933 (at node 0)
Injected flit rate average = 0.499993
	minimum = 0 (at node 3)
	maximum = 0.805533 (at node 6)
Accepted flit rate average= 0.499496
	minimum = 0 (at node 5)
	maximum = 0.804933 (at node 0)
Injected packet length average = 1
Accepted packet length average = 1
Total in-flight flits = 87 (87 measured)
====== Peak Queue Occupancy Statistics (Absolute Max) ======
  Overall Max VC Occupancy = 1
  Overall Max Buffer Occupancy = 2
latency change    = 0.0285997
throughput change = 0.0995373
Class 0:
Packet latency average = 13.8146
	minimum = 8
	maximum = 31
	95th percentile = 22.5
	99th percentile = 25.5
Network latency average = 13.8146
	minimum = 8
	maximum = 31
	95th percentile = 22.5
	99th percentile = 25.5
Slowest packet = 88956
Flit latency average = 13.8143
	minimum = 8
	maximum = 31
	95th percentile = 22.5
	99th percentile = 25.5
Slowest flit = 88956
Fragmentation average = 0
	minimum = 0
	maximum = 0
Injected packet rate average = 0.550802
	minimum = 0.132667 (at node 3)
	maximum = 0.804056 (at node 6)
Accepted packet rate average = 0.550259
	minimum = 0.132 (at node 5)
	maximum = 0.803556 (at node 1)
Injected flit rate average = 0.550802
	minimum = 0.132667 (at node 3)
	maximum = 0.804056 (at node 6)
Accepted flit rate average= 0.550259
	minimum = 0.132 (at node 5)
	maximum = 0.803556 (at node 1)
Injected packet length average = 1
Accepted packet length average = 1
Total in-flight flits = 108 (108 measured)
====== Peak Queue Occupancy Statistics (Absolute Max) ======
  Overall Max VC Occupancy = 1
  Overall Max Buffer Occupancy = 3
latency change    = 0.0241393
throughput change = 0.0922528
Class 0:
Packet latency average = 13.9985
	minimum = 8
	maximum = 31
	95th percentile = 22.5
	99th percentile = 25.5
Network latency average = 13.9985
	minimum = 8
	maximum = 31
	95th percentile = 22.5
	99th percentile = 25.5
Slowest packet = 88956
Flit latency average = 13.9983
	minimum = 8
	maximum = 31
	95th percentile = 22.5
	99th percentile = 25.5
Slowest flit = 88956
Fragmentation average = 0
	minimum = 0
	maximum = 0
Injected packet rate average = 0.586259
	minimum = 0.227238 (at node 3)
	maximum = 0.80481 (at node 6)
Accepted packet rate average = 0.585767
	minimum = 0.226667 (at node 5)
	maximum = 0.804333 (at node 0)
Injected flit rate average = 0.586259
	minimum = 0.227238 (at node 3)
	maximum = 0.80481 (at node 6)
Accepted flit rate average= 0.585767
	minimum = 0.226667 (at node 5)
	maximum = 0.804333 (at node 0)
Injected packet length average = 1
Accepted packet length average = 1
Total in-flight flits = 113 (113 measured)
====== Peak Queue Occupancy Statistics (Absolute Max) ======
  Overall Max VC Occupancy = 1
  Overall Max Buffer Occupancy = 3
latency change    = 0.0131403
throughput change = 0.0606178
Class 0:
Packet latency average = 14.1404
	minimum = 8
	maximum = 31
	95th percentile = 22.5
	99th percentile = 26.5
Network latency average = 14.1404
	minimum = 8
	maximum = 31
	95th percentile = 22.5
	99th percentile = 26.5
Slowest packet = 88956
Flit latency average = 14.1402
	minimum = 8
	maximum = 31
	95th percentile = 22.5
	99th percentile = 26.5
Slowest flit = 88956
Fragmentation average = 0
	minimum = 0
	maximum = 0
Injected packet rate average = 0.613593
	minimum = 0.300458 (at node 3)
	maximum = 0.805208 (at node 6)
Accepted packet rate average = 0.613194
	minimum = 0.300042 (at node 5)
	maximum = 0.804708 (at node 0)
Injected flit rate average = 0.613593
	minimum = 0.300458 (at node 3)
	maximum = 0.805208 (at node 6)
Accepted flit rate average= 0.613194
	minimum = 0.300042 (at node 5)
	maximum = 0.804708 (at node 0)
Injected packet length average = 1
Accepted packet length average = 1
Total in-flight flits = 106 (106 measured)
====== Peak Queue Occupancy Statistics (Absolute Max) ======
  Overall Max VC Occupancy = 1
  Overall Max Buffer Occupancy = 3
latency change    = 0.0100329
throughput change = 0.0447285
Class 0:
Packet latency average = 14.2316
	minimum = 8
	maximum = 32
	95th percentile = 23.5
	99th percentile = 26.5
Network latency average = 14.2316
	minimum = 8
	maximum = 32
	95th percentile = 23.5
	99th percentile = 26.5
Slowest packet = 158817
Flit latency average = 14.2313
	minimum = 8
	maximum = 32
	95th percentile = 23.5
	99th percentile = 26.5
Slowest flit = 158817
Fragmentation average = 0
	minimum = 0
	maximum = 0
Injected packet rate average = 0.634362
	minimum = 0.357037 (at node 3)
	maximum = 0.803963 (at node 6)
Accepted packet rate average = 0.633984
	minimum = 0.35663 (at node 5)
	maximum = 0.80363 (at node 0)
Injected flit rate average = 0.634362
	minimum = 0.357037 (at node 3)
	maximum = 0.803963 (at node 6)
Accepted flit rate average= 0.633984
	minimum = 0.35663 (at node 5)
	maximum = 0.80363 (at node 0)
Injected packet length average = 1
Accepted packet length average = 1
Total in-flight flits = 112 (112 measured)
====== Peak Queue Occupancy Statistics (Absolute Max) ======
  Overall Max VC Occupancy = 1
  Overall Max Buffer Occupancy = 3
latency change    = 0.00640457
throughput change = 0.0327912
Class 0:
Packet latency average = 14.3003
	minimum = 8
	maximum = 32
	95th percentile = 23.5
	99th percentile = 26.5
Network latency average = 14.3003
	minimum = 8
	maximum = 32
	95th percentile = 23.5
	99th percentile = 26.5
Slowest packet = 158817
Flit latency average = 14.3001
	minimum = 8
	maximum = 32
	95th percentile = 23.5
	99th percentile = 26.5
Slowest flit = 158817
Fragmentation average = 0
	minimum = 0
	maximum = 0
Injected packet rate average = 0.650919
	minimum = 0.401767 (at node 3)
	maximum = 0.8048 (at node 6)
Accepted packet rate average = 0.650578
	minimum = 0.401333 (at node 5)
	maximum = 0.804433 (at node 0)
Injected flit rate average = 0.650919
	minimum = 0.401767 (at node 3)
	maximum = 0.8048 (at node 6)
Accepted flit rate average= 0.650578
	minimum = 0.401333 (at node 5)
	maximum = 0.804433 (at node 0)
Injected packet length average = 1
Accepted packet length average = 1
Total in-flight flits = 112 (112 measured)
====== Peak Queue Occupancy Statistics (Absolute Max) ======
  Overall Max VC Occupancy = 1
  Overall Max Buffer Occupancy = 3
latency change    = 0.004804
throughput change = 0.0255069
Draining all recorded packets ...
Draining remaining packets ...
Time taken is 36055 cycles
====== Overall Traffic Statistics ======
====== Traffic class 0 ======
Packet latency average = 14.3012 (1 samples)
	minimum = 8 (1 samples)
	maximum = 32 (1 samples)
Network latency average = 14.3012 (1 samples)
	minimum = 8 (1 samples)
	maximum = 32 (1 samples)
Flit latency average = 14.3017 (1 samples)
	minimum = 8 (1 samples)
	maximum = 32 (1 samples)
Fragmentation average = 0 (1 samples)
	minimum = 0 (1 samples)
	maximum = 0 (1 samples)
Injected packet rate average = 0.650919 (1 samples)
	minimum = 0.401767 (1 samples)
	maximum = 0.8048 (1 samples)
Accepted packet rate average = 0.650578 (1 samples)
	minimum = 0.401333 (1 samples)
	maximum = 0.804433 (1 samples)
Injected flit rate average = 0.650919 (1 samples)
	minimum = 0.401767 (1 samples)
	maximum = 0.8048 (1 samples)
Accepted flit rate average = 0.650578 (1 samples)
	minimum = 0.401333 (1 samples)
	maximum = 0.804433 (1 samples)
Injected packet size average = 1 (1 samples)
Accepted packet size average = 1 (1 samples)
Hops average = 3.5922 (1 samples)
Total run time 5.90215

