BEGIN Configuration File: D:\noc_huawei\noc\booksim2-noc_speedup_study\booksim2-noc_speedup_study\tests\data\results\random_perm_growth_models_perm_p3_peak_0p8\tmp_configs\ordered_fill_racke_tree_s2203.config
num_vcs     = 48;
vc_buf_size = 16;
wait_for_tail_credit = 1;

vc_allocator = islip;
sw_allocator = islip;
alloc_iters  = 16;

credit_delay   = 2;
routing_delay  = 0;
vc_alloc_delay = 1;
sw_alloc_delay = 1;
st_final_delay = 1;

input_speedup     = 1;
output_speedup    = 1;
internal_speedup  = 2.0;

sim_type = latency;
latency_thres  = 100000.0;
sim_count      = 1;
queue_sample_period_cycles = 0;

topology = mesh;
k  = 3;
n  = 2;

hybrid_transition_mode = linear_prob;
hybrid_xy_low_threshold = 0.35;
hybrid_racke_high_threshold = 0.65;
hybrid_buffer_soft_threshold = 0.50;
hybrid_buffer_hard_threshold = 0.85;
hybrid_buffer_release_threshold = 0.35;
hybrid_rate_soft_threshold = 0.55;
hybrid_rate_hard_threshold = 0.90;
hybrid_rate_weight = 0.25;
hybrid_congestion_alpha = 0.25;
hybrid_racke_increase_step = 0.25;
hybrid_racke_decrease_step = 0.10;
hybrid_epoch_cycles = 200;
hybrid_hold_cycles = 600;
hybrid_enable_midflight_override = 1;
hybrid_feedback_delay_per_hop = 1;
hybrid_flow_increase_step = 0.20;
hybrid_flow_decrease_step = 0.08;
hybrid_flow_hard_threshold = 0.95;

packet_size = 1;

scheduled_injection_rates = {0.10,0.20,0.30};
scheduled_phase_cycles = {1000,1000,1000};
scheduled_default_phase_cycles = 1000;

custom_perm_array = {4,7,6,5,1,2,0,8,3};
warmup_periods = 2;
seed = 2203;
hybrid_flow_hotspot_alpha = 0.85;
injection_process = ordered_fill;
perm_seed = 2203;
ordered_injection_phase_cycles = {3000,3000,3000,3000,3000,3000,3000,3000,3000,3000};
routing_function = racke_tree;
injection_rate = 0.8;
max_samples = 18;
ordered_injection_source_order = {4,7,6,5,1,2,0,8,3};
hybrid_flow_hotspot_threshold = 1.1;
ordered_injection_flow_peak_rate = 0.8;
ordered_injection_coefficients = {0.125,0.25,0.375,0.5,0.625,0.75,0.875,1.0,1.0,1.0};
hybrid_stats_window_cycles = 3000;
traffic = custom_perm;
sample_period = 3000;

END Configuration File: D:\noc_huawei\noc\booksim2-noc_speedup_study\booksim2-noc_speedup_study\tests\data\results\random_perm_growth_models_perm_p3_peak_0p8\tmp_configs\ordered_fill_racke_tree_s2203.config
Class 0:
Packet latency average = 10.3181
	minimum = 8
	maximum = 20
	95th percentile = 14.5
	99th percentile = 20.5
Network latency average = 10.3181
	minimum = 8
	maximum = 20
	95th percentile = 14.5
	99th percentile = 20.5
Slowest packet = 16
Flit latency average = 10.3181
	minimum = 8
	maximum = 20
	95th percentile = 14.5
	99th percentile = 20.5
Slowest flit = 16
Fragmentation average = 0
	minimum = 0
	maximum = 0
Injected packet rate average = 0.0997778
	minimum = 0 (at node 0)
	maximum = 0.791333 (at node 4)
Accepted packet rate average = 0.0994444
	minimum = 0 (at node 0)
	maximum = 0.788667 (at node 1)
Injected flit rate average = 0.0997778
	minimum = 0 (at node 0)
	maximum = 0.791333 (at node 4)
Accepted flit rate average= 0.0994444
	minimum = 0 (at node 0)
	maximum = 0.788667 (at node 1)
Injected packet length average = 1
Accepted packet length average = 1
Total in-flight flits = 9 (0 measured)
====== Peak Queue Occupancy Statistics (Absolute Max) ======
  Overall Max VC Occupancy = 1
  Overall Max Buffer Occupancy = 2
latency change    = 1
throughput change = 1
Class 0:
Packet latency average = 10.9602
	minimum = 8
	maximum = 23
	95th percentile = 20.5
	99th percentile = 23.5
Network latency average = 10.9602
	minimum = 8
	maximum = 23
	95th percentile = 20.5
	99th percentile = 23.5
Slowest packet = 2767
Flit latency average = 10.9602
	minimum = 8
	maximum = 23
	95th percentile = 20.5
	99th percentile = 23.5
Slowest flit = 2767
Fragmentation average = 0
	minimum = 0
	maximum = 0
Injected packet rate average = 0.149093
	minimum = 0 (at node 0)
	maximum = 0.796333 (at node 4)
Accepted packet rate average = 0.148778
	minimum = 0 (at node 2)
	maximum = 0.795 (at node 1)
Injected flit rate average = 0.149093
	minimum = 0 (at node 0)
	maximum = 0.796333 (at node 4)
Accepted flit rate average= 0.148778
	minimum = 0 (at node 2)
	maximum = 0.795 (at node 1)
Injected packet length average = 1
Accepted packet length average = 1
Total in-flight flits = 17 (0 measured)
====== Peak Queue Occupancy Statistics (Absolute Max) ======
  Overall Max VC Occupancy = 1
  Overall Max Buffer Occupancy = 2
latency change    = 0.0585854
throughput change = 0.331591
Warmed up ...Time used is 6000 cycles
Class 0:
Packet latency average = 12.2406
	minimum = 8
	maximum = 26
	95th percentile = 23.5
	99th percentile = 24.5
Network latency average = 12.2406
	minimum = 8
	maximum = 26
	95th percentile = 23.5
	99th percentile = 24.5
Slowest packet = 11842
Flit latency average = 12.2406
	minimum = 8
	maximum = 26
	95th percentile = 23.5
	99th percentile = 24.5
Slowest flit = 11842
Fragmentation average = 0
	minimum = 0
	maximum = 0
Injected packet rate average = 0.301037
	minimum = 0 (at node 0)
	maximum = 0.799333 (at node 6)
Accepted packet rate average = 0.300444
	minimum = 0 (at node 3)
	maximum = 0.799 (at node 8)
Injected flit rate average = 0.301037
	minimum = 0 (at node 0)
	maximum = 0.799333 (at node 6)
Accepted flit rate average= 0.300444
	minimum = 0 (at node 3)
	maximum = 0.799 (at node 8)
Injected packet length average = 1
Accepted packet length average = 1
Total in-flight flits = 33 (33 measured)
====== Peak Queue Occupancy Statistics (Absolute Max) ======
  Overall Max VC Occupancy = 1
  Overall Max Buffer Occupancy = 2
latency change    = 0.104608
throughput change = 0.504808
Class 0:
Packet latency average = 12.4032
	minimum = 8
	maximum = 26
	95th percentile = 22.5
	99th percentile = 24.5
Network latency average = 12.4032
	minimum = 8
	maximum = 26
	95th percentile = 22.5
	99th percentile = 24.5
Slowest packet = 11842
Flit latency average = 12.403
	minimum = 8
	maximum = 26
	95th percentile = 22.5
	99th percentile = 24.5
Slowest flit = 11842
Fragmentation average = 0
	minimum = 0
	maximum = 0
Injected packet rate average = 0.350222
	minimum = 0 (at node 0)
	maximum = 0.802667 (at node 7)
Accepted packet rate average = 0.349704
	minimum = 0 (at node 3)
	maximum = 0.802667 (at node 8)
Injected flit rate average = 0.350222
	minimum = 0 (at node 0)
	maximum = 0.802667 (at node 7)
Accepted flit rate average= 0.349704
	minimum = 0 (at node 3)
	maximum = 0.802667 (at node 8)
Injected packet length average = 1
Accepted packet length average = 1
Total in-flight flits = 45 (45 measured)
====== Peak Queue Occupancy Statistics (Absolute Max) ======
  Overall Max VC Occupancy = 1
  Overall Max Buffer Occupancy = 2
latency change    = 0.0131054
throughput change = 0.14086
Class 0:
Packet latency average = 12.7575
	minimum = 8
	maximum = 27
	95th percentile = 22.5
	99th percentile = 25.5
Network latency average = 12.7575
	minimum = 8
	maximum = 27
	95th percentile = 22.5
	99th percentile = 25.5
Slowest packet = 27205
Flit latency average = 12.7572
	minimum = 8
	maximum = 27
	95th percentile = 22.5
	99th percentile = 25.5
Slowest flit = 27205
Fragmentation average = 0
	minimum = 0
	maximum = 0
Injected packet rate average = 0.400877
	minimum = 0 (at node 0)
	maximum = 0.801333 (at node 4)
Accepted packet rate average = 0.40037
	minimum = 0 (at node 3)
	maximum = 0.801222 (at node 1)
Injected flit rate average = 0.400877
	minimum = 0 (at node 0)
	maximum = 0.801333 (at node 4)
Accepted flit rate average= 0.40037
	minimum = 0 (at node 3)
	maximum = 0.801222 (at node 1)
Injected packet length average = 1
Accepted packet length average = 1
Total in-flight flits = 58 (58 measured)
====== Peak Queue Occupancy Statistics (Absolute Max) ======
  Overall Max VC Occupancy = 1
  Overall Max Buffer Occupancy = 2
latency change    = 0.027773
throughput change = 0.126549
Class 0:
Packet latency average = 13.1068
	minimum = 8
	maximum = 28
	95th percentile = 22.5
	99th percentile = 25.5
Network latency average = 13.1068
	minimum = 8
	maximum = 28
	95th percentile = 22.5
	99th percentile = 25.5
Slowest packet = 55868
Flit latency average = 13.1065
	minimum = 8
	maximum = 28
	95th percentile = 22.5
	99th percentile = 25.5
Slowest flit = 55868
Fragmentation average = 0
	minimum = 0
	maximum = 0
Injected packet rate average = 0.450907
	minimum = 0 (at node 3)
	maximum = 0.804333 (at node 7)
Accepted packet rate average = 0.450426
	minimum = 0 (at node 3)
	maximum = 0.804167 (at node 8)
Injected flit rate average = 0.450907
	minimum = 0 (at node 3)
	maximum = 0.804333 (at node 7)
Accepted flit rate average= 0.450426
	minimum = 0 (at node 3)
	maximum = 0.804167 (at node 8)
Injected packet length average = 1
Accepted packet length average = 1
Total in-flight flits = 69 (69 measured)
====== Peak Queue Occupancy Statistics (Absolute Max) ======
  Overall Max VC Occupancy = 1
  Overall Max Buffer Occupancy = 2
latency change    = 0.0266475
throughput change = 0.111129
Class 0:
Packet latency average = 13.4882
	minimum = 8
	maximum = 29
	95th percentile = 22.5
	99th percentile = 25.5
Network latency average = 13.4882
	minimum = 8
	maximum = 29
	95th percentile = 22.5
	99th percentile = 25.5
Slowest packet = 59650
Flit latency average = 13.4879
	minimum = 8
	maximum = 29
	95th percentile = 22.5
	99th percentile = 25.5
Slowest flit = 59650
Fragmentation average = 0
	minimum = 0
	maximum = 0
Injected packet rate average = 0.501133
	minimum = 0 (at node 3)
	maximum = 0.8024 (at node 7)
Accepted packet rate average = 0.500593
	minimum = 0 (at node 5)
	maximum = 0.802333 (at node 8)
Injected flit rate average = 0.501133
	minimum = 0 (at node 3)
	maximum = 0.8024 (at node 7)
Accepted flit rate average= 0.500593
	minimum = 0 (at node 5)
	maximum = 0.802333 (at node 8)
Injected packet length average = 1
Accepted packet length average = 1
Total in-flight flits = 90 (90 measured)
====== Peak Queue Occupancy Statistics (Absolute Max) ======
  Overall Max VC Occupancy = 1
  Overall Max Buffer Occupancy = 3
latency change    = 0.0282808
throughput change = 0.100215
Class 0:
Packet latency average = 13.791
	minimum = 8
	maximum = 29
	95th percentile = 22.5
	99th percentile = 25.5
Network latency average = 13.791
	minimum = 8
	maximum = 29
	95th percentile = 22.5
	99th percentile = 25.5
Slowest packet = 59650
Flit latency average = 13.7907
	minimum = 8
	maximum = 29
	95th percentile = 22.5
	99th percentile = 25.5
Slowest flit = 59650
Fragmentation average = 0
	minimum = 0
	maximum = 0
Injected packet rate average = 0.550654
	minimum = 0.133222 (at node 3)
	maximum = 0.801778 (at node 6)
Accepted packet rate average = 0.55008
	minimum = 0.132556 (at node 5)
	maximum = 0.801 (at node 0)
Injected flit rate average = 0.550654
	minimum = 0.133222 (at node 3)
	maximum = 0.801778 (at node 6)
Accepted flit rate average= 0.55008
	minimum = 0.132556 (at node 5)
	maximum = 0.801 (at node 0)
Injected packet length average = 1
Accepted packet length average = 1
Total in-flight flits = 110 (110 measured)
====== Peak Queue Occupancy Statistics (Absolute Max) ======
  Overall Max VC Occupancy = 1
  Overall Max Buffer Occupancy = 3
latency change    = 0.0219553
throughput change = 0.0899644
Class 0:
Packet latency average = 13.9861
	minimum = 8
	maximum = 30
	95th percentile = 22.5
	99th percentile = 25.5
Network latency average = 13.9861
	minimum = 8
	maximum = 30
	95th percentile = 22.5
	99th percentile = 25.5
Slowest packet = 115780
Flit latency average = 13.9859
	minimum = 8
	maximum = 30
	95th percentile = 22.5
	99th percentile = 25.5
Slowest flit = 115780
Fragmentation average = 0
	minimum = 0
	maximum = 0
Injected packet rate average = 0.586614
	minimum = 0.228381 (at node 3)
	maximum = 0.803381 (at node 6)
Accepted packet rate average = 0.586095
	minimum = 0.22781 (at node 5)
	maximum = 0.802857 (at node 0)
Injected flit rate average = 0.586614
	minimum = 0.228381 (at node 3)
	maximum = 0.803381 (at node 6)
Accepted flit rate average= 0.586095
	minimum = 0.22781 (at node 5)
	maximum = 0.802857 (at node 0)
Injected packet length average = 1
Accepted packet length average = 1
Total in-flight flits = 115 (115 measured)
====== Peak Queue Occupancy Statistics (Absolute Max) ======
  Overall Max VC Occupancy = 1
  Overall Max Buffer Occupancy = 3
latency change    = 0.0139522
throughput change = 0.061449
Class 0:
Packet latency average = 14.1146
	minimum = 8
	maximum = 32
	95th percentile = 22.5
	99th percentile = 26.5
Network latency average = 14.1146
	minimum = 8
	maximum = 32
	95th percentile = 22.5
	99th percentile = 26.5
Slowest packet = 121569
Flit latency average = 14.1143
	minimum = 8
	maximum = 32
	95th percentile = 22.5
	99th percentile = 26.5
Slowest flit = 121569
Fragmentation average = 0
	minimum = 0
	maximum = 0
Injected packet rate average = 0.613144
	minimum = 0.298 (at node 3)
	maximum = 0.802042 (at node 7)
Accepted packet rate average = 0.612736
	minimum = 0.297583 (at node 5)
	maximum = 0.801958 (at node 8)
Injected flit rate average = 0.613144
	minimum = 0.298 (at node 3)
	maximum = 0.802042 (at node 7)
Accepted flit rate average= 0.612736
	minimum = 0.297583 (at node 5)
	maximum = 0.801958 (at node 8)
Injected packet length average = 1
Accepted packet length average = 1
Total in-flight flits = 105 (105 measured)
====== Peak Queue Occupancy Statistics (Absolute Max) ======
  Overall Max VC Occupancy = 1
  Overall Max Buffer Occupancy = 3
latency change    = 0.00909922
throughput change = 0.0434785
Class 0:
Packet latency average = 14.2069
	minimum = 8
	maximum = 32
	95th percentile = 23.5
	99th percentile = 26.5
Network latency average = 14.2069
	minimum = 8
	maximum = 32
	95th percentile = 23.5
	99th percentile = 26.5
Slowest packet = 121569
Flit latency average = 14.2066
	minimum = 8
	maximum = 32
	95th percentile = 23.5
	99th percentile = 26.5
Slowest flit = 121569
Fragmentation average = 0
	minimum = 0
	maximum = 0
Injected packet rate average = 0.634136
	minimum = 0.353852 (at node 3)
	maximum = 0.801852 (at node 6)
Accepted packet rate average = 0.633757
	minimum = 0.353407 (at node 5)
	maximum = 0.801556 (at node 8)
Injected flit rate average = 0.634136
	minimum = 0.353852 (at node 3)
	maximum = 0.801852 (at node 6)
Accepted flit rate average= 0.633757
	minimum = 0.353407 (at node 5)
	maximum = 0.801556 (at node 8)
Injected packet length average = 1
Accepted packet length average = 1
Total in-flight flits = 109 (109 measured)
====== Peak Queue Occupancy Statistics (Absolute Max) ======
  Overall Max VC Occupancy = 1
  Overall Max Buffer Occupancy = 3
latency change    = 0.00649512
throughput change = 0.033169
Class 0:
Packet latency average = 14.2797
	minimum = 8
	maximum = 32
	95th percentile = 23.5
	99th percentile = 26.5
Network latency average = 14.2797
	minimum = 8
	maximum = 32
	95th percentile = 23.5
	99th percentile = 26.5
Slowest packet = 121569
Flit latency average = 14.2795
	minimum = 8
	maximum = 32
	95th percentile = 23.5
	99th percentile = 26.5
Slowest flit = 121569
Fragmentation average = 0
	minimum = 0
	maximum = 0
Injected packet rate average = 0.651056
	minimum = 0.399367 (at node 3)
	maximum = 0.8021 (at node 6)
Accepted packet rate average = 0.650744
	minimum = 0.398967 (at node 5)
	maximum = 0.801833 (at node 0)
Injected flit rate average = 0.651056
	minimum = 0.399367 (at node 3)
	maximum = 0.8021 (at node 6)
Accepted flit rate average= 0.650744
	minimum = 0.398967 (at node 5)
	maximum = 0.801833 (at node 0)
Injected packet length average = 1
Accepted packet length average = 1
Total in-flight flits = 101 (101 measured)
====== Peak Queue Occupancy Statistics (Absolute Max) ======
  Overall Max VC Occupancy = 1
  Overall Max Buffer Occupancy = 3
latency change    = 0.00510206
throughput change = 0.0261043
Draining all recorded packets ...
Draining remaining packets ...
Time taken is 36047 cycles
====== Overall Traffic Statistics ======
====== Traffic class 0 ======
Packet latency average = 14.2805 (1 samples)
	minimum = 8 (1 samples)
	maximum = 32 (1 samples)
Network latency average = 14.2805 (1 samples)
	minimum = 8 (1 samples)
	maximum = 32 (1 samples)
Flit latency average = 14.2802 (1 samples)
	minimum = 8 (1 samples)
	maximum = 32 (1 samples)
Fragmentation average = 0 (1 samples)
	minimum = 0 (1 samples)
	maximum = 0 (1 samples)
Injected packet rate average = 0.651056 (1 samples)
	minimum = 0.399367 (1 samples)
	maximum = 0.8021 (1 samples)
Accepted packet rate average = 0.650744 (1 samples)
	minimum = 0.398967 (1 samples)
	maximum = 0.801833 (1 samples)
Injected flit rate average = 0.651056 (1 samples)
	minimum = 0.399367 (1 samples)
	maximum = 0.8021 (1 samples)
Accepted flit rate average = 0.650744 (1 samples)
	minimum = 0.398967 (1 samples)
	maximum = 0.801833 (1 samples)
Injected packet size average = 1 (1 samples)
Accepted packet size average = 1 (1 samples)
Hops average = 3.59139 (1 samples)
Total run time 5.85321

