BEGIN Configuration File: D:\noc_huawei\noc\booksim2-noc_speedup_study\booksim2-noc_speedup_study\tests\data\results\fixed_perm_growth_models_perm_4_3_6_1_8_7_2_5_0_peak_0p8_current_defaults\tmp_configs\linear_scale_racke_tree_s2203.config
num_vcs     = 48;
vc_buf_size = 16;
wait_for_tail_credit = 1;

vc_allocator = islip;
sw_allocator = islip;
alloc_iters  = 16;

credit_delay   = 2;
routing_delay  = 0;
vc_alloc_delay = 1;
sw_alloc_delay = 1;
st_final_delay = 1;

input_speedup     = 1;
output_speedup    = 1;
internal_speedup  = 2.0;

sim_type = latency;
latency_thres  = 100000.0;
sim_count      = 1;
queue_sample_period_cycles = 0;

topology = mesh;
k  = 3;
n  = 2;

hybrid_transition_mode = linear_prob;
hybrid_xy_low_threshold = 0.35;
hybrid_racke_high_threshold = 0.65;
hybrid_buffer_soft_threshold = 0.50;
hybrid_buffer_hard_threshold = 0.85;
hybrid_buffer_release_threshold = 0.35;
hybrid_rate_soft_threshold = 0.55;
hybrid_rate_hard_threshold = 0.90;
hybrid_rate_weight = 0.25;
hybrid_congestion_alpha = 0.25;
hybrid_racke_increase_step = 0.25;
hybrid_racke_decrease_step = 0.10;
hybrid_epoch_cycles = 200;
hybrid_hold_cycles = 600;
hybrid_enable_midflight_override = 1;
hybrid_feedback_delay_per_hop = 1;
hybrid_flow_increase_step = 0.20;
hybrid_flow_decrease_step = 0.08;
hybrid_flow_hard_threshold = 0.95;

packet_size = 1;


ordered_injection_coefficients = {0.1666666667,0.3333333333,0.5};
ordered_injection_phase_cycles = {1000,1000,1000};
ordered_injection_source_order = {4,0,7,2,8,1,5,3,6};
ordered_injection_flow_peak_rate = 0.60;
warmup_periods = 2;
custom_perm_array = {4,3,6,1,8,7,2,5,0};
injection_process = scheduled;
injection_rate = 0.8;
scheduled_default_phase_cycles = 3000;
perm_seed = 2203;
hybrid_flow_hotspot_alpha = 0.85;
hybrid_stats_window_cycles = 3000;
hybrid_flow_hotspot_threshold = 1.1;
sample_period = 3000;
scheduled_injection_rates = {0.05,0.1,0.15,0.2,0.25,0.3,0.35,0.4,0.45,0.5,0.55,0.6,0.65,0.7,0.75,0.8,0.8,0.8};
traffic = custom_perm;
routing_function = racke_tree;
scheduled_phase_cycles = {3000,3000,3000,3000,3000,3000,3000,3000,3000,3000,3000,3000,3000,3000,3000,3000,3000,3000};
seed = 2203;
max_samples = 26;

END Configuration File: D:\noc_huawei\noc\booksim2-noc_speedup_study\booksim2-noc_speedup_study\tests\data\results\fixed_perm_growth_models_perm_4_3_6_1_8_7_2_5_0_peak_0p8_current_defaults\tmp_configs\linear_scale_racke_tree_s2203.config
Class 0:
Packet latency average = 14.3967
	minimum = 11
	maximum = 19
	95th percentile = 17.5
	99th percentile = 18.5
Network latency average = 14.3967
	minimum = 11
	maximum = 19
	95th percentile = 17.5
	99th percentile = 18.5
Slowest packet = 257
Flit latency average = 14.3967
	minimum = 11
	maximum = 19
	95th percentile = 17.5
	99th percentile = 18.5
Slowest flit = 257
Fragmentation average = 0
	minimum = 0
	maximum = 0
Injected packet rate average = 0.0513704
	minimum = 0.0443333 (at node 2)
	maximum = 0.0586667 (at node 6)
Accepted packet rate average = 0.0510741
	minimum = 0.044 (at node 6)
	maximum = 0.0583333 (at node 2)
Injected flit rate average = 0.0513704
	minimum = 0.0443333 (at node 2)
	maximum = 0.0586667 (at node 6)
Accepted flit rate average= 0.0510741
	minimum = 0.044 (at node 6)
	maximum = 0.0583333 (at node 2)
Injected packet length average = 1
Accepted packet length average = 1
Total in-flight flits = 8 (0 measured)
====== Peak Queue Occupancy Statistics (Absolute Max) ======
  Overall Max VC Occupancy = 1
  Overall Max Buffer Occupancy = 2
latency change    = 1
throughput change = 1
Class 0:
Packet latency average = 14.4263
	minimum = 11
	maximum = 19
	95th percentile = 18.5
	99th percentile = 18.5
Network latency average = 14.4263
	minimum = 11
	maximum = 19
	95th percentile = 18.5
	99th percentile = 18.5
Slowest packet = 257
Flit latency average = 14.4263
	minimum = 11
	maximum = 19
	95th percentile = 18.5
	99th percentile = 18.5
Slowest flit = 257
Fragmentation average = 0
	minimum = 0
	maximum = 0
Injected packet rate average = 0.0757963
	minimum = 0.0723333 (at node 1)
	maximum = 0.0813333 (at node 5)
Accepted packet rate average = 0.0755926
	minimum = 0.0723333 (at node 3)
	maximum = 0.081 (at node 7)
Injected flit rate average = 0.0757963
	minimum = 0.0723333 (at node 1)
	maximum = 0.0813333 (at node 5)
Accepted flit rate average= 0.0755926
	minimum = 0.0723333 (at node 3)
	maximum = 0.081 (at node 7)
Injected packet length average = 1
Accepted packet length average = 1
Total in-flight flits = 11 (0 measured)
====== Peak Queue Occupancy Statistics (Absolute Max) ======
  Overall Max VC Occupancy = 1
  Overall Max Buffer Occupancy = 2
latency change    = 0.00205163
throughput change = 0.324351
Warmed up ...Time used is 6000 cycles
Class 0:
Packet latency average = 14.5501
	minimum = 11
	maximum = 22
	95th percentile = 18.5
	99th percentile = 19.5
Network latency average = 14.5501
	minimum = 11
	maximum = 22
	95th percentile = 18.5
	99th percentile = 19.5
Slowest packet = 7950
Flit latency average = 14.5508
	minimum = 11
	maximum = 22
	95th percentile = 18.5
	99th percentile = 19.5
Slowest flit = 7950
Fragmentation average = 0
	minimum = 0
	maximum = 0
Injected packet rate average = 0.153074
	minimum = 0.145333 (at node 1)
	maximum = 0.163333 (at node 5)
Accepted packet rate average = 0.152963
	minimum = 0.144667 (at node 3)
	maximum = 0.163667 (at node 7)
Injected flit rate average = 0.153074
	minimum = 0.145333 (at node 1)
	maximum = 0.163333 (at node 5)
Accepted flit rate average= 0.152963
	minimum = 0.144667 (at node 3)
	maximum = 0.163667 (at node 7)
Injected packet length average = 1
Accepted packet length average = 1
Total in-flight flits = 14 (14 measured)
====== Peak Queue Occupancy Statistics (Absolute Max) ======
  Overall Max VC Occupancy = 1
  Overall Max Buffer Occupancy = 2
latency change    = 0.00851345
throughput change = 0.505811
Class 0:
Packet latency average = 14.6333
	minimum = 11
	maximum = 22
	95th percentile = 18.5
	99th percentile = 19.5
Network latency average = 14.6333
	minimum = 11
	maximum = 22
	95th percentile = 18.5
	99th percentile = 19.5
Slowest packet = 7950
Flit latency average = 14.6335
	minimum = 11
	maximum = 22
	95th percentile = 18.5
	99th percentile = 19.5
Slowest flit = 7950
Fragmentation average = 0
	minimum = 0
	maximum = 0
Injected packet rate average = 0.177148
	minimum = 0.168833 (at node 0)
	maximum = 0.183167 (at node 8)
Accepted packet rate average = 0.177
	minimum = 0.168833 (at node 4)
	maximum = 0.183333 (at node 0)
Injected flit rate average = 0.177148
	minimum = 0.168833 (at node 0)
	maximum = 0.183167 (at node 8)
Accepted flit rate average= 0.177
	minimum = 0.168833 (at node 4)
	maximum = 0.183333 (at node 0)
Injected packet length average = 1
Accepted packet length average = 1
Total in-flight flits = 19 (19 measured)
====== Peak Queue Occupancy Statistics (Absolute Max) ======
  Overall Max VC Occupancy = 1
  Overall Max Buffer Occupancy = 2
latency change    = 0.00568255
throughput change = 0.135802
Class 0:
Packet latency average = 14.691
	minimum = 11
	maximum = 22
	95th percentile = 18.5
	99th percentile = 19.5
Network latency average = 14.691
	minimum = 11
	maximum = 22
	95th percentile = 18.5
	99th percentile = 19.5
Slowest packet = 7950
Flit latency average = 14.691
	minimum = 11
	maximum = 22
	95th percentile = 18.5
	99th percentile = 19.5
Slowest flit = 7950
Fragmentation average = 0
	minimum = 0
	maximum = 0
Injected packet rate average = 0.202395
	minimum = 0.195444 (at node 6)
	maximum = 0.208 (at node 8)
Accepted packet rate average = 0.202111
	minimum = 0.195 (at node 2)
	maximum = 0.207778 (at node 0)
Injected flit rate average = 0.202395
	minimum = 0.195444 (at node 6)
	maximum = 0.208 (at node 8)
Accepted flit rate average= 0.202111
	minimum = 0.195 (at node 2)
	maximum = 0.207778 (at node 0)
Injected packet length average = 1
Accepted packet length average = 1
Total in-flight flits = 34 (34 measured)
====== Peak Queue Occupancy Statistics (Absolute Max) ======
  Overall Max VC Occupancy = 1
  Overall Max Buffer Occupancy = 2
latency change    = 0.00392525
throughput change = 0.124244
Class 0:
Packet latency average = 14.7681
	minimum = 11
	maximum = 23
	95th percentile = 19.5
	99th percentile = 20.5
Network latency average = 14.7681
	minimum = 11
	maximum = 23
	95th percentile = 19.5
	99th percentile = 20.5
Slowest packet = 26454
Flit latency average = 14.7681
	minimum = 11
	maximum = 23
	95th percentile = 19.5
	99th percentile = 20.5
Slowest flit = 26454
Fragmentation average = 0
	minimum = 0
	maximum = 0
Injected packet rate average = 0.227157
	minimum = 0.219167 (at node 6)
	maximum = 0.234333 (at node 8)
Accepted packet rate average = 0.226926
	minimum = 0.218833 (at node 2)
	maximum = 0.234167 (at node 0)
Injected flit rate average = 0.227157
	minimum = 0.219167 (at node 6)
	maximum = 0.234333 (at node 8)
Accepted flit rate average= 0.226926
	minimum = 0.218833 (at node 2)
	maximum = 0.234167 (at node 0)
Injected packet length average = 1
Accepted packet length average = 1
Total in-flight flits = 36 (36 measured)
====== Peak Queue Occupancy Statistics (Absolute Max) ======
  Overall Max VC Occupancy = 1
  Overall Max Buffer Occupancy = 2
latency change    = 0.00522071
throughput change = 0.109352
Class 0:
Packet latency average = 14.8435
	minimum = 11
	maximum = 23
	95th percentile = 19.5
	99th percentile = 20.5
Network latency average = 14.8435
	minimum = 11
	maximum = 23
	95th percentile = 19.5
	99th percentile = 20.5
Slowest packet = 26454
Flit latency average = 14.8435
	minimum = 11
	maximum = 23
	95th percentile = 19.5
	99th percentile = 20.5
Slowest flit = 26454
Fragmentation average = 0
	minimum = 0
	maximum = 0
Injected packet rate average = 0.252178
	minimum = 0.2454 (at node 6)
	maximum = 0.259333 (at node 8)
Accepted packet rate average = 0.251852
	minimum = 0.2452 (at node 2)
	maximum = 0.259 (at node 0)
Injected flit rate average = 0.252178
	minimum = 0.2454 (at node 6)
	maximum = 0.259333 (at node 8)
Accepted flit rate average= 0.251852
	minimum = 0.2452 (at node 2)
	maximum = 0.259 (at node 0)
Injected packet length average = 1
Accepted packet length average = 1
Total in-flight flits = 55 (55 measured)
====== Peak Queue Occupancy Statistics (Absolute Max) ======
  Overall Max VC Occupancy = 1
  Overall Max Buffer Occupancy = 2
latency change    = 0.00508139
throughput change = 0.0989706
Class 0:
Packet latency average = 14.9256
	minimum = 11
	maximum = 24
	95th percentile = 19.5
	99th percentile = 20.5
Network latency average = 14.9256
	minimum = 11
	maximum = 24
	95th percentile = 19.5
	99th percentile = 20.5
Slowest packet = 38075
Flit latency average = 14.9256
	minimum = 11
	maximum = 24
	95th percentile = 19.5
	99th percentile = 20.5
Slowest flit = 38075
Fragmentation average = 0
	minimum = 0
	maximum = 0
Injected packet rate average = 0.276932
	minimum = 0.273444 (at node 1)
	maximum = 0.283444 (at node 8)
Accepted packet rate average = 0.276667
	minimum = 0.273056 (at node 3)
	maximum = 0.283111 (at node 0)
Injected flit rate average = 0.276932
	minimum = 0.273444 (at node 1)
	maximum = 0.283444 (at node 8)
Accepted flit rate average= 0.276667
	minimum = 0.273056 (at node 3)
	maximum = 0.283111 (at node 0)
Injected packet length average = 1
Accepted packet length average = 1
Total in-flight flits = 54 (54 measured)
====== Peak Queue Occupancy Statistics (Absolute Max) ======
  Overall Max VC Occupancy = 1
  Overall Max Buffer Occupancy = 2
latency change    = 0.00550173
throughput change = 0.0896921
Class 0:
Packet latency average = 15.0207
	minimum = 11
	maximum = 24
	95th percentile = 19.5
	99th percentile = 21.5
Network latency average = 15.0207
	minimum = 11
	maximum = 24
	95th percentile = 19.5
	99th percentile = 21.5
Slowest packet = 38075
Flit latency average = 15.0206
	minimum = 11
	maximum = 24
	95th percentile = 19.5
	99th percentile = 21.5
Slowest flit = 38075
Fragmentation average = 0
	minimum = 0
	maximum = 0
Injected packet rate average = 0.302053
	minimum = 0.294905 (at node 1)
	maximum = 0.30881 (at node 8)
Accepted packet rate average = 0.301741
	minimum = 0.294714 (at node 3)
	maximum = 0.308571 (at node 0)
Injected flit rate average = 0.302053
	minimum = 0.294905 (at node 1)
	maximum = 0.30881 (at node 8)
Accepted flit rate average= 0.301741
	minimum = 0.294714 (at node 3)
	maximum = 0.308571 (at node 0)
Injected packet length average = 1
Accepted packet length average = 1
Total in-flight flits = 70 (70 measured)
====== Peak Queue Occupancy Statistics (Absolute Max) ======
  Overall Max VC Occupancy = 1
  Overall Max Buffer Occupancy = 2
latency change    = 0.00632894
throughput change = 0.0830981
Class 0:
Packet latency average = 15.1171
	minimum = 11
	maximum = 24
	95th percentile = 20.5
	99th percentile = 21.5
Network latency average = 15.1171
	minimum = 11
	maximum = 24
	95th percentile = 20.5
	99th percentile = 21.5
Slowest packet = 38075
Flit latency average = 15.117
	minimum = 11
	maximum = 24
	95th percentile = 20.5
	99th percentile = 21.5
Slowest flit = 38075
Fragmentation average = 0
	minimum = 0
	maximum = 0
Injected packet rate average = 0.326856
	minimum = 0.320958 (at node 1)
	maximum = 0.332375 (at node 8)
Accepted packet rate average = 0.326644
	minimum = 0.320708 (at node 3)
	maximum = 0.332125 (at node 0)
Injected flit rate average = 0.326856
	minimum = 0.320958 (at node 1)
	maximum = 0.332375 (at node 8)
Accepted flit rate average= 0.326644
	minimum = 0.320708 (at node 3)
	maximum = 0.332125 (at node 0)
Injected packet length average = 1
Accepted packet length average = 1
Total in-flight flits = 57 (57 measured)
====== Peak Queue Occupancy Statistics (Absolute Max) ======
  Overall Max VC Occupancy = 1
  Overall Max Buffer Occupancy = 2
latency change    = 0.00637793
throughput change = 0.0762384
Class 0:
Packet latency average = 15.2211
	minimum = 11
	maximum = 25
	95th percentile = 20.5
	99th percentile = 21.5
Network latency average = 15.2211
	minimum = 11
	maximum = 25
	95th percentile = 20.5
	99th percentile = 21.5
Slowest packet = 74665
Flit latency average = 15.221
	minimum = 11
	maximum = 25
	95th percentile = 20.5
	99th percentile = 21.5
Slowest flit = 74665
Fragmentation average = 0
	minimum = 0
	maximum = 0
Injected packet rate average = 0.35165
	minimum = 0.346333 (at node 1)
	maximum = 0.356852 (at node 8)
Accepted packet rate average = 0.351342
	minimum = 0.346111 (at node 3)
	maximum = 0.356519 (at node 0)
Injected flit rate average = 0.35165
	minimum = 0.346333 (at node 1)
	maximum = 0.356852 (at node 8)
Accepted flit rate average= 0.351342
	minimum = 0.346111 (at node 3)
	maximum = 0.356519 (at node 0)
Injected packet length average = 1
Accepted packet length average = 1
Total in-flight flits = 86 (86 measured)
====== Peak Queue Occupancy Statistics (Absolute Max) ======
  Overall Max VC Occupancy = 1
  Overall Max Buffer Occupancy = 3
latency change    = 0.00683252
throughput change = 0.0702964
Class 0:
Packet latency average = 15.3433
	minimum = 11
	maximum = 27
	95th percentile = 20.5
	99th percentile = 21.5
Network latency average = 15.3433
	minimum = 11
	maximum = 27
	95th percentile = 20.5
	99th percentile = 21.5
Slowest packet = 105462
Flit latency average = 15.3432
	minimum = 11
	maximum = 27
	95th percentile = 20.5
	99th percentile = 21.5
Slowest flit = 105462
Fragmentation average = 0
	minimum = 0
	maximum = 0
Injected packet rate average = 0.376741
	minimum = 0.371167 (at node 1)
	maximum = 0.3818 (at node 8)
Accepted packet rate average = 0.376456
	minimum = 0.370967 (at node 3)
	maximum = 0.381467 (at node 0)
Injected flit rate average = 0.376741
	minimum = 0.371167 (at node 1)
	maximum = 0.3818 (at node 8)
Accepted flit rate average= 0.376456
	minimum = 0.370967 (at node 3)
	maximum = 0.381467 (at node 0)
Injected packet length average = 1
Accepted packet length average = 1
Total in-flight flits = 88 (88 measured)
====== Peak Queue Occupancy Statistics (Absolute Max) ======
  Overall Max VC Occupancy = 1
  Overall Max Buffer Occupancy = 3
latency change    = 0.00796399
throughput change = 0.0667117
Class 0:
Packet latency average = 15.468
	minimum = 11
	maximum = 27
	95th percentile = 20.5
	99th percentile = 22.5
Network latency average = 15.468
	minimum = 11
	maximum = 27
	95th percentile = 20.5
	99th percentile = 22.5
Slowest packet = 105462
Flit latency average = 15.468
	minimum = 11
	maximum = 27
	95th percentile = 20.5
	99th percentile = 22.5
Slowest flit = 105462
Fragmentation average = 0
	minimum = 0
	maximum = 0
Injected packet rate average = 0.402027
	minimum = 0.396606 (at node 1)
	maximum = 0.406939 (at node 8)
Accepted packet rate average = 0.401737
	minimum = 0.396303 (at node 3)
	maximum = 0.406576 (at node 0)
Injected flit rate average = 0.402027
	minimum = 0.396606 (at node 1)
	maximum = 0.406939 (at node 8)
Accepted flit rate average= 0.401737
	minimum = 0.396303 (at node 3)
	maximum = 0.406576 (at node 0)
Injected packet length average = 1
Accepted packet length average = 1
Total in-flight flits = 97 (97 measured)
====== Peak Queue Occupancy Statistics (Absolute Max) ======
  Overall Max VC Occupancy = 1
  Overall Max Buffer Occupancy = 3
latency change    = 0.00806563
throughput change = 0.0629312
Class 0:
Packet latency average = 15.5989
	minimum = 11
	maximum = 27
	95th percentile = 21.5
	99th percentile = 22.5
Network latency average = 15.5989
	minimum = 11
	maximum = 27
	95th percentile = 21.5
	99th percentile = 22.5
Slowest packet = 105462
Flit latency average = 15.5988
	minimum = 11
	maximum = 27
	95th percentile = 21.5
	99th percentile = 22.5
Slowest flit = 105462
Fragmentation average = 0
	minimum = 0
	maximum = 0
Injected packet rate average = 0.426843
	minimum = 0.421861 (at node 6)
	maximum = 0.431361 (at node 8)
Accepted packet rate average = 0.426552
	minimum = 0.421444 (at node 2)
	maximum = 0.431056 (at node 0)
Injected flit rate average = 0.426843
	minimum = 0.421861 (at node 6)
	maximum = 0.431361 (at node 8)
Accepted flit rate average= 0.426552
	minimum = 0.421444 (at node 2)
	maximum = 0.431056 (at node 0)
Injected packet length average = 1
Accepted packet length average = 1
Total in-flight flits = 105 (105 measured)
====== Peak Queue Occupancy Statistics (Absolute Max) ======
  Overall Max VC Occupancy = 1
  Overall Max Buffer Occupancy = 3
latency change    = 0.0083884
throughput change = 0.058176
Class 0:
Packet latency average = 15.7568
	minimum = 11
	maximum = 27
	95th percentile = 21.5
	99th percentile = 22.5
Network latency average = 15.7568
	minimum = 11
	maximum = 27
	95th percentile = 21.5
	99th percentile = 22.5
Slowest packet = 105462
Flit latency average = 15.7567
	minimum = 11
	maximum = 27
	95th percentile = 21.5
	99th percentile = 22.5
Slowest flit = 105462
Fragmentation average = 0
	minimum = 0
	maximum = 0
Injected packet rate average = 0.451883
	minimum = 0.445974 (at node 6)
	maximum = 0.456513 (at node 8)
Accepted packet rate average = 0.451604
	minimum = 0.445692 (at node 2)
	maximum = 0.456231 (at node 0)
Injected flit rate average = 0.451883
	minimum = 0.445974 (at node 6)
	maximum = 0.456513 (at node 8)
Accepted flit rate average= 0.451604
	minimum = 0.445692 (at node 2)
	maximum = 0.456231 (at node 0)
Injected packet length average = 1
Accepted packet length average = 1
Total in-flight flits = 109 (109 measured)
====== Peak Queue Occupancy Statistics (Absolute Max) ======
  Overall Max VC Occupancy = 1
  Overall Max Buffer Occupancy = 3
latency change    = 0.0100204
throughput change = 0.0554723
Class 0:
Packet latency average = 15.9654
	minimum = 11
	maximum = 28
	95th percentile = 21.5
	99th percentile = 23.5
Network latency average = 15.9654
	minimum = 11
	maximum = 28
	95th percentile = 21.5
	99th percentile = 23.5
Slowest packet = 165090
Flit latency average = 15.9653
	minimum = 11
	maximum = 28
	95th percentile = 21.5
	99th percentile = 23.5
Slowest flit = 165090
Fragmentation average = 0
	minimum = 0
	maximum = 0
Injected packet rate average = 0.476413
	minimum = 0.470643 (at node 6)
	maximum = 0.480881 (at node 8)
Accepted packet rate average = 0.476119
	minimum = 0.470238 (at node 2)
	maximum = 0.480548 (at node 0)
Injected flit rate average = 0.476413
	minimum = 0.470643 (at node 6)
	maximum = 0.480881 (at node 8)
Accepted flit rate average= 0.476119
	minimum = 0.470238 (at node 2)
	maximum = 0.480548 (at node 0)
Injected packet length average = 1
Accepted packet length average = 1
Total in-flight flits = 122 (122 measured)
====== Peak Queue Occupancy Statistics (Absolute Max) ======
  Overall Max VC Occupancy = 1
  Overall Max Buffer Occupancy = 3
latency change    = 0.0130657
throughput change = 0.0514893
Class 0:
Packet latency average = 16.1336
	minimum = 11
	maximum = 29
	95th percentile = 22.5
	99th percentile = 24.5
Network latency average = 16.1336
	minimum = 11
	maximum = 29
	95th percentile = 22.5
	99th percentile = 24.5
Slowest packet = 187790
Flit latency average = 16.1335
	minimum = 11
	maximum = 29
	95th percentile = 22.5
	99th percentile = 24.5
Slowest flit = 187790
Fragmentation average = 0
	minimum = 0
	maximum = 0
Injected packet rate average = 0.49799
	minimum = 0.492378 (at node 6)
	maximum = 0.501689 (at node 8)
Accepted packet rate average = 0.497701
	minimum = 0.491933 (at node 2)
	maximum = 0.501378 (at node 0)
Injected flit rate average = 0.49799
	minimum = 0.492378 (at node 6)
	maximum = 0.501689 (at node 8)
Accepted flit rate average= 0.497701
	minimum = 0.491933 (at node 2)
	maximum = 0.501378 (at node 0)
Injected packet length average = 1
Accepted packet length average = 1
Total in-flight flits = 128 (128 measured)
====== Peak Queue Occupancy Statistics (Absolute Max) ======
  Overall Max VC Occupancy = 1
  Overall Max Buffer Occupancy = 3
latency change    = 0.0104276
throughput change = 0.0433637
Class 0:
Packet latency average = 16.2742
	minimum = 11
	maximum = 30
	95th percentile = 22.5
	99th percentile = 24.5
Network latency average = 16.2742
	minimum = 11
	maximum = 30
	95th percentile = 22.5
	99th percentile = 24.5
Slowest packet = 218747
Flit latency average = 16.2741
	minimum = 11
	maximum = 30
	95th percentile = 22.5
	99th percentile = 24.5
Slowest flit = 218747
Fragmentation average = 0
	minimum = 0
	maximum = 0
Injected packet rate average = 0.516806
	minimum = 0.511062 (at node 6)
	maximum = 0.520625 (at node 8)
Accepted packet rate average = 0.516551
	minimum = 0.510771 (at node 2)
	maximum = 0.520354 (at node 0)
Injected flit rate average = 0.516806
	minimum = 0.511062 (at node 6)
	maximum = 0.520625 (at node 8)
Accepted flit rate average= 0.516551
	minimum = 0.510771 (at node 2)
	maximum = 0.520354 (at node 0)
Injected packet length average = 1
Accepted packet length average = 1
Total in-flight flits = 121 (121 measured)
====== Peak Queue Occupancy Statistics (Absolute Max) ======
  Overall Max VC Occupancy = 1
  Overall Max Buffer Occupancy = 3
latency change    = 0.00863984
throughput change = 0.0364914
Class 0:
Packet latency average = 16.3861
	minimum = 11
	maximum = 30
	95th percentile = 22.5
	99th percentile = 24.5
Network latency average = 16.3861
	minimum = 11
	maximum = 30
	95th percentile = 22.5
	99th percentile = 24.5
Slowest packet = 218747
Flit latency average = 16.386
	minimum = 11
	maximum = 30
	95th percentile = 22.5
	99th percentile = 24.5
Slowest flit = 218747
Fragmentation average = 0
	minimum = 0
	maximum = 0
Injected packet rate average = 0.533235
	minimum = 0.527157 (at node 6)
	maximum = 0.537235 (at node 8)
Accepted packet rate average = 0.532983
	minimum = 0.526863 (at node 2)
	maximum = 0.536961 (at node 0)
Injected flit rate average = 0.533235
	minimum = 0.527157 (at node 6)
	maximum = 0.537235 (at node 8)
Accepted flit rate average= 0.532983
	minimum = 0.526863 (at node 2)
	maximum = 0.536961 (at node 0)
Injected packet length average = 1
Accepted packet length average = 1
Total in-flight flits = 127 (127 measured)
====== Peak Queue Occupancy Statistics (Absolute Max) ======
  Overall Max VC Occupancy = 1
  Overall Max Buffer Occupancy = 3
latency change    = 0.00682616
throughput change = 0.0308296
Draining all recorded packets ...
Draining remaining packets ...
Time taken is 57048 cycles
====== Overall Traffic Statistics ======
====== Traffic class 0 ======
Packet latency average = 16.3873 (1 samples)
	minimum = 11 (1 samples)
	maximum = 30 (1 samples)
Network latency average = 16.3873 (1 samples)
	minimum = 11 (1 samples)
	maximum = 30 (1 samples)
Flit latency average = 16.3882 (1 samples)
	minimum = 11 (1 samples)
	maximum = 30 (1 samples)
Fragmentation average = 0 (1 samples)
	minimum = 0 (1 samples)
	maximum = 0 (1 samples)
Injected packet rate average = 0.533235 (1 samples)
	minimum = 0.527157 (1 samples)
	maximum = 0.537235 (1 samples)
Accepted packet rate average = 0.532983 (1 samples)
	minimum = 0.526863 (1 samples)
	maximum = 0.536961 (1 samples)
Injected flit rate average = 0.533235 (1 samples)
	minimum = 0.527157 (1 samples)
	maximum = 0.537235 (1 samples)
Accepted flit rate average = 0.532983 (1 samples)
	minimum = 0.526863 (1 samples)
	maximum = 0.536961 (1 samples)
Injected packet size average = 1 (1 samples)
Accepted packet size average = 1 (1 samples)
Hops average = 4.11111 (1 samples)
Total run time 9.14276

