BEGIN Configuration File: D:\noc_huawei\noc\booksim2-noc_speedup_study\booksim2-noc_speedup_study\tests\data\results\fixed_perm_growth_models_perm_4_3_6_1_8_7_2_5_0_peak_0p8_current_defaults\tmp_configs\linear_scale_hybrid_xy_racke_s2203.config
num_vcs     = 48;
vc_buf_size = 16;
wait_for_tail_credit = 1;

vc_allocator = islip;
sw_allocator = islip;
alloc_iters  = 16;

credit_delay   = 2;
routing_delay  = 0;
vc_alloc_delay = 1;
sw_alloc_delay = 1;
st_final_delay = 1;

input_speedup     = 1;
output_speedup    = 1;
internal_speedup  = 2.0;

sim_type = latency;
latency_thres  = 100000.0;
sim_count      = 1;
queue_sample_period_cycles = 0;

topology = mesh;
k  = 3;
n  = 2;

hybrid_transition_mode = linear_prob;
hybrid_xy_low_threshold = 0.35;
hybrid_racke_high_threshold = 0.65;
hybrid_buffer_soft_threshold = 0.50;
hybrid_buffer_hard_threshold = 0.85;
hybrid_buffer_release_threshold = 0.35;
hybrid_rate_soft_threshold = 0.55;
hybrid_rate_hard_threshold = 0.90;
hybrid_rate_weight = 0.25;
hybrid_congestion_alpha = 0.25;
hybrid_racke_increase_step = 0.25;
hybrid_racke_decrease_step = 0.10;
hybrid_epoch_cycles = 200;
hybrid_hold_cycles = 600;
hybrid_enable_midflight_override = 1;
hybrid_feedback_delay_per_hop = 1;
hybrid_flow_increase_step = 0.20;
hybrid_flow_decrease_step = 0.08;
hybrid_flow_hard_threshold = 0.95;

packet_size = 1;


ordered_injection_coefficients = {0.1666666667,0.3333333333,0.5};
ordered_injection_phase_cycles = {1000,1000,1000};
ordered_injection_source_order = {4,0,7,2,8,1,5,3,6};
ordered_injection_flow_peak_rate = 0.60;
warmup_periods = 2;
custom_perm_array = {4,3,6,1,8,7,2,5,0};
injection_process = scheduled;
injection_rate = 0.8;
scheduled_default_phase_cycles = 3000;
perm_seed = 2203;
hybrid_flow_hotspot_alpha = 0.85;
hybrid_stats_window_cycles = 3000;
hybrid_flow_hotspot_threshold = 1.1;
sample_period = 3000;
scheduled_injection_rates = {0.05,0.1,0.15,0.2,0.25,0.3,0.35,0.4,0.45,0.5,0.55,0.6,0.65,0.7,0.75,0.8,0.8,0.8};
traffic = custom_perm;
routing_function = hybrid_xy_racke;
scheduled_phase_cycles = {3000,3000,3000,3000,3000,3000,3000,3000,3000,3000,3000,3000,3000,3000,3000,3000,3000,3000};
seed = 2203;
max_samples = 26;

END Configuration File: D:\noc_huawei\noc\booksim2-noc_speedup_study\booksim2-noc_speedup_study\tests\data\results\fixed_perm_growth_models_perm_4_3_6_1_8_7_2_5_0_peak_0p8_current_defaults\tmp_configs\linear_scale_hybrid_xy_racke_s2203.config
Class 0:
Packet latency average = 12.987
	minimum = 11
	maximum = 18
	95th percentile = 17.5
	99th percentile = 17.5
Network latency average = 12.987
	minimum = 11
	maximum = 18
	95th percentile = 17.5
	99th percentile = 17.5
Slowest packet = 10
Flit latency average = 12.987
	minimum = 11
	maximum = 18
	95th percentile = 17.5
	99th percentile = 17.5
Slowest flit = 10
Fragmentation average = 0
	minimum = 0
	maximum = 0
Injected packet rate average = 0.0513704
	minimum = 0.0443333 (at node 2)
	maximum = 0.0586667 (at node 6)
Accepted packet rate average = 0.0511111
	minimum = 0.044 (at node 6)
	maximum = 0.0583333 (at node 2)
Injected flit rate average = 0.0513704
	minimum = 0.0443333 (at node 2)
	maximum = 0.0586667 (at node 6)
Accepted flit rate average= 0.0511111
	minimum = 0.044 (at node 6)
	maximum = 0.0583333 (at node 2)
Injected packet length average = 1
Accepted packet length average = 1
Total in-flight flits = 7 (0 measured)
====== Peak Queue Occupancy Statistics (Absolute Max) ======
  Overall Max VC Occupancy = 1
  Overall Max Buffer Occupancy = 2
latency change    = 1
throughput change = 1
Class 0:
Packet latency average = 12.9868
	minimum = 11
	maximum = 19
	95th percentile = 17.5
	99th percentile = 18.5
Network latency average = 12.9868
	minimum = 11
	maximum = 19
	95th percentile = 17.5
	99th percentile = 18.5
Slowest packet = 1545
Flit latency average = 12.9868
	minimum = 11
	maximum = 19
	95th percentile = 17.5
	99th percentile = 18.5
Slowest flit = 1545
Fragmentation average = 0
	minimum = 0
	maximum = 0
Injected packet rate average = 0.0757963
	minimum = 0.0723333 (at node 1)
	maximum = 0.0813333 (at node 5)
Accepted packet rate average = 0.0756296
	minimum = 0.0723333 (at node 3)
	maximum = 0.0811667 (at node 7)
Injected flit rate average = 0.0757963
	minimum = 0.0723333 (at node 1)
	maximum = 0.0813333 (at node 5)
Accepted flit rate average= 0.0756296
	minimum = 0.0723333 (at node 3)
	maximum = 0.0811667 (at node 7)
Injected packet length average = 1
Accepted packet length average = 1
Total in-flight flits = 9 (0 measured)
====== Peak Queue Occupancy Statistics (Absolute Max) ======
  Overall Max VC Occupancy = 1
  Overall Max Buffer Occupancy = 2
latency change    = 1.37719e-05
throughput change = 0.324192
Warmed up ...Time used is 6000 cycles
Class 0:
Packet latency average = 13.0223
	minimum = 11
	maximum = 19
	95th percentile = 17.5
	99th percentile = 18.5
Network latency average = 13.0223
	minimum = 11
	maximum = 19
	95th percentile = 17.5
	99th percentile = 18.5
Slowest packet = 4726
Flit latency average = 13.0223
	minimum = 11
	maximum = 19
	95th percentile = 17.5
	99th percentile = 18.5
Slowest flit = 4726
Fragmentation average = 0
	minimum = 0
	maximum = 0
Injected packet rate average = 0.153074
	minimum = 0.145333 (at node 1)
	maximum = 0.163333 (at node 5)
Accepted packet rate average = 0.152926
	minimum = 0.144667 (at node 3)
	maximum = 0.163333 (at node 7)
Injected flit rate average = 0.153074
	minimum = 0.145333 (at node 1)
	maximum = 0.163333 (at node 5)
Accepted flit rate average= 0.152926
	minimum = 0.144667 (at node 3)
	maximum = 0.163333 (at node 7)
Injected packet length average = 1
Accepted packet length average = 1
Total in-flight flits = 13 (13 measured)
====== Peak Queue Occupancy Statistics (Absolute Max) ======
  Overall Max VC Occupancy = 1
  Overall Max Buffer Occupancy = 2
latency change    = 0.00273011
throughput change = 0.505449
Class 0:
Packet latency average = 13.0779
	minimum = 11
	maximum = 19
	95th percentile = 17.5
	99th percentile = 18.5
Network latency average = 13.0779
	minimum = 11
	maximum = 19
	95th percentile = 17.5
	99th percentile = 18.5
Slowest packet = 4726
Flit latency average = 13.0778
	minimum = 11
	maximum = 19
	95th percentile = 17.5
	99th percentile = 18.5
Slowest flit = 4726
Fragmentation average = 0
	minimum = 0
	maximum = 0
Injected packet rate average = 0.177148
	minimum = 0.168833 (at node 0)
	maximum = 0.183167 (at node 8)
Accepted packet rate average = 0.177037
	minimum = 0.168833 (at node 4)
	maximum = 0.183333 (at node 0)
Injected flit rate average = 0.177148
	minimum = 0.168833 (at node 0)
	maximum = 0.183167 (at node 8)
Accepted flit rate average= 0.177037
	minimum = 0.168833 (at node 4)
	maximum = 0.183333 (at node 0)
Injected packet length average = 1
Accepted packet length average = 1
Total in-flight flits = 15 (15 measured)
====== Peak Queue Occupancy Statistics (Absolute Max) ======
  Overall Max VC Occupancy = 1
  Overall Max Buffer Occupancy = 2
latency change    = 0.00424896
throughput change = 0.136192
Class 0:
Packet latency average = 13.0926
	minimum = 11
	maximum = 21
	95th percentile = 17.5
	99th percentile = 18.5
Network latency average = 13.0926
	minimum = 11
	maximum = 21
	95th percentile = 17.5
	99th percentile = 18.5
Slowest packet = 17149
Flit latency average = 13.0926
	minimum = 11
	maximum = 21
	95th percentile = 17.5
	99th percentile = 18.5
Slowest flit = 17149
Fragmentation average = 0
	minimum = 0
	maximum = 0
Injected packet rate average = 0.202395
	minimum = 0.195444 (at node 6)
	maximum = 0.208 (at node 8)
Accepted packet rate average = 0.20216
	minimum = 0.195 (at node 2)
	maximum = 0.207778 (at node 0)
Injected flit rate average = 0.202395
	minimum = 0.195444 (at node 6)
	maximum = 0.208 (at node 8)
Accepted flit rate average= 0.20216
	minimum = 0.195 (at node 2)
	maximum = 0.207778 (at node 0)
Injected packet length average = 1
Accepted packet length average = 1
Total in-flight flits = 28 (28 measured)
====== Peak Queue Occupancy Statistics (Absolute Max) ======
  Overall Max VC Occupancy = 1
  Overall Max Buffer Occupancy = 2
latency change    = 0.00112532
throughput change = 0.124275
Class 0:
Packet latency average = 13.1273
	minimum = 11
	maximum = 21
	95th percentile = 17.5
	99th percentile = 18.5
Network latency average = 13.1273
	minimum = 11
	maximum = 21
	95th percentile = 17.5
	99th percentile = 18.5
Slowest packet = 17149
Flit latency average = 13.1272
	minimum = 11
	maximum = 21
	95th percentile = 17.5
	99th percentile = 18.5
Slowest flit = 17149
Fragmentation average = 0
	minimum = 0
	maximum = 0
Injected packet rate average = 0.227157
	minimum = 0.219167 (at node 6)
	maximum = 0.234333 (at node 8)
Accepted packet rate average = 0.226944
	minimum = 0.218833 (at node 2)
	maximum = 0.234167 (at node 0)
Injected flit rate average = 0.227157
	minimum = 0.219167 (at node 6)
	maximum = 0.234333 (at node 8)
Accepted flit rate average= 0.226944
	minimum = 0.218833 (at node 2)
	maximum = 0.234167 (at node 0)
Injected packet length average = 1
Accepted packet length average = 1
Total in-flight flits = 32 (32 measured)
====== Peak Queue Occupancy Statistics (Absolute Max) ======
  Overall Max VC Occupancy = 1
  Overall Max Buffer Occupancy = 2
latency change    = 0.00263795
throughput change = 0.109207
Class 0:
Packet latency average = 13.1607
	minimum = 11
	maximum = 22
	95th percentile = 18.5
	99th percentile = 19.5
Network latency average = 13.1607
	minimum = 11
	maximum = 22
	95th percentile = 18.5
	99th percentile = 19.5
Slowest packet = 33722
Flit latency average = 13.1606
	minimum = 11
	maximum = 22
	95th percentile = 18.5
	99th percentile = 19.5
Slowest flit = 33722
Fragmentation average = 0
	minimum = 0
	maximum = 0
Injected packet rate average = 0.252178
	minimum = 0.2454 (at node 6)
	maximum = 0.259333 (at node 8)
Accepted packet rate average = 0.251904
	minimum = 0.245133 (at node 2)
	maximum = 0.259 (at node 0)
Injected flit rate average = 0.252178
	minimum = 0.2454 (at node 6)
	maximum = 0.259333 (at node 8)
Accepted flit rate average= 0.251904
	minimum = 0.245133 (at node 2)
	maximum = 0.259 (at node 0)
Injected packet length average = 1
Accepted packet length average = 1
Total in-flight flits = 46 (46 measured)
====== Peak Queue Occupancy Statistics (Absolute Max) ======
  Overall Max VC Occupancy = 1
  Overall Max Buffer Occupancy = 2
latency change    = 0.00253982
throughput change = 0.0990825
Class 0:
Packet latency average = 13.248
	minimum = 11
	maximum = 26
	95th percentile = 18.5
	99th percentile = 19.5
Network latency average = 13.248
	minimum = 11
	maximum = 26
	95th percentile = 18.5
	99th percentile = 19.5
Slowest packet = 42617
Flit latency average = 13.2479
	minimum = 11
	maximum = 26
	95th percentile = 18.5
	99th percentile = 19.5
Slowest flit = 42617
Fragmentation average = 0
	minimum = 0
	maximum = 0
Injected packet rate average = 0.276932
	minimum = 0.273444 (at node 1)
	maximum = 0.283444 (at node 8)
Accepted packet rate average = 0.276654
	minimum = 0.273056 (at node 3)
	maximum = 0.283167 (at node 0)
Injected flit rate average = 0.276932
	minimum = 0.273444 (at node 1)
	maximum = 0.283444 (at node 8)
Accepted flit rate average= 0.276654
	minimum = 0.273056 (at node 3)
	maximum = 0.283167 (at node 0)
Injected packet length average = 1
Accepted packet length average = 1
Total in-flight flits = 54 (54 measured)
====== Peak Queue Occupancy Statistics (Absolute Max) ======
  Overall Max VC Occupancy = 1
  Overall Max Buffer Occupancy = 2
latency change    = 0.00658968
throughput change = 0.0894641
Class 0:
Packet latency average = 13.3637
	minimum = 11
	maximum = 29
	95th percentile = 18.5
	99th percentile = 21.5
Network latency average = 13.3637
	minimum = 11
	maximum = 29
	95th percentile = 18.5
	99th percentile = 21.5
Slowest packet = 50279
Flit latency average = 13.3637
	minimum = 11
	maximum = 29
	95th percentile = 18.5
	99th percentile = 21.5
Slowest flit = 50279
Fragmentation average = 0
	minimum = 0
	maximum = 0
Injected packet rate average = 0.302053
	minimum = 0.294905 (at node 1)
	maximum = 0.30881 (at node 8)
Accepted packet rate average = 0.301794
	minimum = 0.294762 (at node 3)
	maximum = 0.308619 (at node 0)
Injected flit rate average = 0.302053
	minimum = 0.294905 (at node 1)
	maximum = 0.30881 (at node 8)
Accepted flit rate average= 0.301794
	minimum = 0.294762 (at node 3)
	maximum = 0.308619 (at node 0)
Injected packet length average = 1
Accepted packet length average = 1
Total in-flight flits = 58 (58 measured)
====== Peak Queue Occupancy Statistics (Absolute Max) ======
  Overall Max VC Occupancy = 1
  Overall Max Buffer Occupancy = 2
latency change    = 0.00866168
throughput change = 0.0832997
Class 0:
Packet latency average = 14.9017
	minimum = 11
	maximum = 84
	95th percentile = 24.5
	99th percentile = 55.5
Network latency average = 14.9017
	minimum = 11
	maximum = 84
	95th percentile = 24.5
	99th percentile = 55.5
Slowest packet = 70471
Flit latency average = 14.9015
	minimum = 11
	maximum = 84
	95th percentile = 24.5
	99th percentile = 55.5
Slowest flit = 70471
Fragmentation average = 0
	minimum = 0
	maximum = 0
Injected packet rate average = 0.326856
	minimum = 0.320958 (at node 1)
	maximum = 0.332375 (at node 8)
Accepted packet rate average = 0.326343
	minimum = 0.320042 (at node 3)
	maximum = 0.332167 (at node 0)
Injected flit rate average = 0.326856
	minimum = 0.320958 (at node 1)
	maximum = 0.332375 (at node 8)
Accepted flit rate average= 0.326343
	minimum = 0.320042 (at node 3)
	maximum = 0.332167 (at node 0)
Injected packet length average = 1
Accepted packet length average = 1
Total in-flight flits = 120 (120 measured)
====== Peak Queue Occupancy Statistics (Absolute Max) ======
  Overall Max VC Occupancy = 1
  Overall Max Buffer Occupancy = 17
latency change    = 0.103207
throughput change = 0.0752244
Class 0:
Packet latency average = 21.1205
	minimum = 11
	maximum = 791
	95th percentile = 73.5
	99th percentile = 147.5
Network latency average = 21.1204
	minimum = 11
	maximum = 791
	95th percentile = 73.5
	99th percentile = 147.5
Slowest packet = 84472
Flit latency average = 21.1196
	minimum = 11
	maximum = 791
	95th percentile = 73.5
	99th percentile = 147.5
Slowest flit = 84472
Fragmentation average = 0
	minimum = 0
	maximum = 0
Injected packet rate average = 0.351704
	minimum = 0.347593 (at node 1)
	maximum = 0.356111 (at node 4)
Accepted packet rate average = 0.350819
	minimum = 0.345111 (at node 3)
	maximum = 0.355815 (at node 8)
Injected flit rate average = 0.351704
	minimum = 0.347593 (at node 1)
	maximum = 0.356111 (at node 4)
Accepted flit rate average= 0.350819
	minimum = 0.345111 (at node 3)
	maximum = 0.355815 (at node 8)
Injected packet length average = 1
Accepted packet length average = 1
Total in-flight flits = 224 (224 measured)
====== Peak Queue Occupancy Statistics (Absolute Max) ======
  Overall Max VC Occupancy = 1
  Overall Max Buffer Occupancy = 48
latency change    = 0.294444
throughput change = 0.0697691
Class 0:
Packet latency average = 26.9852
	minimum = 11
	maximum = 986
	95th percentile = 99.5
	99th percentile = 224.5
Network latency average = 26.7093
	minimum = 11
	maximum = 986
	95th percentile = 98.5
	99th percentile = 221.5
Slowest packet = 96187
Flit latency average = 26.7081
	minimum = 11
	maximum = 986
	95th percentile = 98.5
	99th percentile = 221.5
Slowest flit = 96187
Fragmentation average = 0
	minimum = 0
	maximum = 0
Injected packet rate average = 0.376941
	minimum = 0.3745 (at node 1)
	maximum = 0.381467 (at node 4)
Accepted packet rate average = 0.37597
	minimum = 0.372667 (at node 3)
	maximum = 0.381167 (at node 8)
Injected flit rate average = 0.376941
	minimum = 0.3745 (at node 1)
	maximum = 0.381467 (at node 4)
Accepted flit rate average= 0.37597
	minimum = 0.372667 (at node 3)
	maximum = 0.381167 (at node 8)
Injected packet length average = 1
Accepted packet length average = 1
Total in-flight flits = 271 (271 measured)
====== Peak Queue Occupancy Statistics (Absolute Max) ======
  Overall Max VC Occupancy = 1
  Overall Max Buffer Occupancy = 48
latency change    = 0.21733
throughput change = 0.0668974
Class 0:
Packet latency average = 33.3886
	minimum = 11
	maximum = 1656
	95th percentile = 123.5
	99th percentile = 312.5
Network latency average = 32.4584
	minimum = 11
	maximum = 1656
	95th percentile = 117.5
	99th percentile = 307.5
Slowest packet = 108539
Flit latency average = 32.457
	minimum = 11
	maximum = 1656
	95th percentile = 117.5
	99th percentile = 307.5
Slowest flit = 108539
Fragmentation average = 0
	minimum = 0
	maximum = 0
Injected packet rate average = 0.402384
	minimum = 0.399697 (at node 1)
	maximum = 0.406515 (at node 4)
Accepted packet rate average = 0.401451
	minimum = 0.398879 (at node 6)
	maximum = 0.405939 (at node 8)
Injected flit rate average = 0.402384
	minimum = 0.399697 (at node 1)
	maximum = 0.406515 (at node 4)
Accepted flit rate average= 0.401451
	minimum = 0.398879 (at node 6)
	maximum = 0.405939 (at node 8)
Injected packet length average = 1
Accepted packet length average = 1
Total in-flight flits = 286 (286 measured)
====== Peak Queue Occupancy Statistics (Absolute Max) ======
  Overall Max VC Occupancy = 1
  Overall Max Buffer Occupancy = 48
latency change    = 0.191783
throughput change = 0.0634717
Class 0:
Packet latency average = 36.7565
	minimum = 11
	maximum = 1656
	95th percentile = 137.5
	99th percentile = 345.5
Network latency average = 35.8464
	minimum = 11
	maximum = 1656
	95th percentile = 130.5
	99th percentile = 342.5
Slowest packet = 108539
Flit latency average = 35.8449
	minimum = 11
	maximum = 1656
	95th percentile = 130.5
	99th percentile = 342.5
Slowest flit = 108539
Fragmentation average = 0
	minimum = 0
	maximum = 0
Injected packet rate average = 0.427086
	minimum = 0.424194 (at node 6)
	maximum = 0.432778 (at node 4)
Accepted packet rate average = 0.425951
	minimum = 0.421972 (at node 2)
	maximum = 0.4325 (at node 8)
Injected flit rate average = 0.427086
	minimum = 0.424194 (at node 6)
	maximum = 0.432778 (at node 4)
Accepted flit rate average= 0.425951
	minimum = 0.421972 (at node 2)
	maximum = 0.4325 (at node 8)
Injected packet length average = 1
Accepted packet length average = 1
Total in-flight flits = 377 (377 measured)
====== Peak Queue Occupancy Statistics (Absolute Max) ======
  Overall Max VC Occupancy = 1
  Overall Max Buffer Occupancy = 48
latency change    = 0.0916289
throughput change = 0.0575171
Class 0:
Packet latency average = 44.6568
	minimum = 11
	maximum = 1656
	95th percentile = 174.5
	99th percentile = 506.5
Network latency average = 40.2806
	minimum = 11
	maximum = 1656
	95th percentile = 151.5
	99th percentile = 400.5
Slowest packet = 108539
Flit latency average = 40.279
	minimum = 11
	maximum = 1656
	95th percentile = 151.5
	99th percentile = 400.5
Slowest flit = 108539
Fragmentation average = 0
	minimum = 0
	maximum = 0
Injected packet rate average = 0.45014
	minimum = 0.441231 (at node 6)
	maximum = 0.457872 (at node 4)
Accepted packet rate average = 0.448783
	minimum = 0.438769 (at node 2)
	maximum = 0.457077 (at node 8)
Injected flit rate average = 0.45014
	minimum = 0.441231 (at node 6)
	maximum = 0.457872 (at node 4)
Accepted flit rate average= 0.448783
	minimum = 0.438769 (at node 2)
	maximum = 0.457077 (at node 8)
Injected packet length average = 1
Accepted packet length average = 1
Total in-flight flits = 486 (486 measured)
====== Peak Queue Occupancy Statistics (Absolute Max) ======
  Overall Max VC Occupancy = 1
  Overall Max Buffer Occupancy = 48
latency change    = 0.17691
throughput change = 0.0508772
Class 0:
Packet latency average = 66.5606
	minimum = 11
	maximum = 2161
	95th percentile = 311.5
	99th percentile = 833.5
Network latency average = 45.7529
	minimum = 11
	maximum = 2077
	95th percentile = 172.5
	99th percentile = 446.5
Slowest packet = 158904
Flit latency average = 45.7512
	minimum = 11
	maximum = 2077
	95th percentile = 172.5
	99th percentile = 446.5
Slowest flit = 158904
Fragmentation average = 0
	minimum = 0
	maximum = 0
Injected packet rate average = 0.472905
	minimum = 0.460024 (at node 8)
	maximum = 0.48181 (at node 4)
Accepted packet rate average = 0.471534
	minimum = 0.457524 (at node 0)
	maximum = 0.481262 (at node 8)
Injected flit rate average = 0.472905
	minimum = 0.460024 (at node 8)
	maximum = 0.48181 (at node 4)
Accepted flit rate average= 0.471534
	minimum = 0.457524 (at node 0)
	maximum = 0.481262 (at node 8)
Injected packet length average = 1
Accepted packet length average = 1
Total in-flight flits = 528 (528 measured)
====== Peak Queue Occupancy Statistics (Absolute Max) ======
  Overall Max VC Occupancy = 1
  Overall Max Buffer Occupancy = 48
latency change    = 0.329081
throughput change = 0.0482487
Class 0:
Packet latency average = 92.2704
	minimum = 11
	maximum = 3342
	95th percentile = 449.5
	99th percentile = 999.5
Network latency average = 49.0918
	minimum = 11
	maximum = 2168
	95th percentile = 184.5
	99th percentile = 475.5
Slowest packet = 158904
Flit latency average = 49.0902
	minimum = 11
	maximum = 2168
	95th percentile = 184.5
	99th percentile = 475.5
Slowest flit = 179146
Fragmentation average = 0
	minimum = 0
	maximum = 0
Injected packet rate average = 0.489998
	minimum = 0.455178 (at node 8)
	maximum = 0.503044 (at node 4)
Accepted packet rate average = 0.488536
	minimum = 0.453 (at node 0)
	maximum = 0.501844 (at node 8)
Injected flit rate average = 0.489998
	minimum = 0.455178 (at node 8)
	maximum = 0.503044 (at node 4)
Accepted flit rate average= 0.488536
	minimum = 0.453 (at node 0)
	maximum = 0.501844 (at node 8)
Injected packet length average = 1
Accepted packet length average = 1
Total in-flight flits = 602 (602 measured)
====== Peak Queue Occupancy Statistics (Absolute Max) ======
  Overall Max VC Occupancy = 1
  Overall Max Buffer Occupancy = 48
latency change    = 0.278635
throughput change = 0.0348007
Class 0:
Packet latency average = 134.421
	minimum = 11
	maximum = 4221
	95th percentile = 764.5
	99th percentile = 999.5
Network latency average = 52.4898
	minimum = 11
	maximum = 2168
	95th percentile = 199.5
	99th percentile = 507.5
Slowest packet = 158904
Flit latency average = 52.4881
	minimum = 11
	maximum = 2168
	95th percentile = 199.5
	99th percentile = 507.5
Slowest flit = 179146
Fragmentation average = 0
	minimum = 0
	maximum = 0
Injected packet rate average = 0.507303
	minimum = 0.463938 (at node 8)
	maximum = 0.521771 (at node 4)
Accepted packet rate average = 0.505933
	minimum = 0.461104 (at node 0)
	maximum = 0.521188 (at node 8)
Injected flit rate average = 0.507303
	minimum = 0.463938 (at node 8)
	maximum = 0.521771 (at node 4)
Accepted flit rate average= 0.505933
	minimum = 0.461104 (at node 0)
	maximum = 0.521188 (at node 8)
Injected packet length average = 1
Accepted packet length average = 1
Total in-flight flits = 602 (602 measured)
====== Peak Queue Occupancy Statistics (Absolute Max) ======
  Overall Max VC Occupancy = 1
  Overall Max Buffer Occupancy = 48
latency change    = 0.31357
throughput change = 0.0343861
Class 0:
Packet latency average = 179.171
	minimum = 11
	maximum = 5020
	95th percentile = 999.5
	99th percentile = 999.5
Network latency average = 55.2444
	minimum = 11
	maximum = 2168
	95th percentile = 214.5
	99th percentile = 530.5
Slowest packet = 158904
Flit latency average = 55.2428
	minimum = 11
	maximum = 2168
	95th percentile = 214.5
	99th percentile = 530.5
Slowest flit = 179146
Fragmentation average = 0
	minimum = 0
	maximum = 0
Injected packet rate average = 0.520943
	minimum = 0.469118 (at node 8)
	maximum = 0.534922 (at node 4)
Accepted packet rate average = 0.519824
	minimum = 0.467431 (at node 0)
	maximum = 0.534039 (at node 5)
Injected flit rate average = 0.520943
	minimum = 0.469118 (at node 8)
	maximum = 0.534922 (at node 4)
Accepted flit rate average= 0.519824
	minimum = 0.467431 (at node 0)
	maximum = 0.534039 (at node 5)
Injected packet length average = 1
Accepted packet length average = 1
Total in-flight flits = 523 (523 measured)
====== Peak Queue Occupancy Statistics (Absolute Max) ======
  Overall Max VC Occupancy = 1
  Overall Max Buffer Occupancy = 48
latency change    = 0.249762
throughput change = 0.0267219
Class 0:
Packet latency average = 236.434
	minimum = 11
	maximum = 5580
	95th percentile = 999.5
	99th percentile = 999.5
Network latency average = 59.0094
	minimum = 11
	maximum = 2168
	95th percentile = 231.5
	99th percentile = 547.5
Slowest packet = 158904
Flit latency average = 59.0078
	minimum = 11
	maximum = 2168
	95th percentile = 231.5
	99th percentile = 547.5
Slowest flit = 179146
Fragmentation average = 0
	minimum = 0
	maximum = 0
Injected packet rate average = 0.535105
	minimum = 0.481222 (at node 8)
	maximum = 0.552222 (at node 4)
Accepted packet rate average = 0.533545
	minimum = 0.479222 (at node 0)
	maximum = 0.551278 (at node 8)
Injected flit rate average = 0.535105
	minimum = 0.481222 (at node 8)
	maximum = 0.552222 (at node 4)
Accepted flit rate average= 0.533545
	minimum = 0.479222 (at node 0)
	maximum = 0.551278 (at node 8)
Injected packet length average = 1
Accepted packet length average = 1
Total in-flight flits = 767 (767 measured)
====== Peak Queue Occupancy Statistics (Absolute Max) ======
  Overall Max VC Occupancy = 1
  Overall Max Buffer Occupancy = 48
latency change    = 0.242195
throughput change = 0.025718
Class 0:
Packet latency average = 300.651
	minimum = 11
	maximum = 5702
	95th percentile = 999.5
	99th percentile = 999.5
Network latency average = 62.9747
	minimum = 11
	maximum = 2168
	95th percentile = 249.5
	99th percentile = 566.5
Slowest packet = 158904
Flit latency average = 62.9731
	minimum = 11
	maximum = 2168
	95th percentile = 249.5
	99th percentile = 566.5
Slowest flit = 179146
Fragmentation average = 0
	minimum = 0
	maximum = 0
Injected packet rate average = 0.5466
	minimum = 0.496351 (at node 8)
	maximum = 0.564772 (at node 4)
Accepted packet rate average = 0.544942
	minimum = 0.494175 (at node 0)
	maximum = 0.563561 (at node 8)
Injected flit rate average = 0.5466
	minimum = 0.496351 (at node 8)
	maximum = 0.564772 (at node 4)
Accepted flit rate average= 0.544942
	minimum = 0.494175 (at node 0)
	maximum = 0.563561 (at node 8)
Injected packet length average = 1
Accepted packet length average = 1
Total in-flight flits = 860 (860 measured)
====== Peak Queue Occupancy Statistics (Absolute Max) ======
  Overall Max VC Occupancy = 1
  Overall Max Buffer Occupancy = 48
latency change    = 0.213593
throughput change = 0.0209128
Class 0:
Packet latency average = 365.48
	minimum = 11
	maximum = 5702
	95th percentile = 999.5
	99th percentile = 999.5
Network latency average = 66.6535
	minimum = 11
	maximum = 2168
	95th percentile = 262.5
	99th percentile = 578.5
Slowest packet = 158904
Flit latency average = 66.6519
	minimum = 11
	maximum = 2168
	95th percentile = 262.5
	99th percentile = 578.5
Slowest flit = 179146
Fragmentation average = 0
	minimum = 0
	maximum = 0
Injected packet rate average = 0.55942
	minimum = 0.512967 (at node 8)
	maximum = 0.57745 (at node 4)
Accepted packet rate average = 0.558178
	minimum = 0.511483 (at node 0)
	maximum = 0.577 (at node 8)
Injected flit rate average = 0.55942
	minimum = 0.512967 (at node 8)
	maximum = 0.57745 (at node 4)
Accepted flit rate average= 0.558178
	minimum = 0.511483 (at node 0)
	maximum = 0.577 (at node 8)
Injected packet length average = 1
Accepted packet length average = 1
Total in-flight flits = 683 (683 measured)
====== Peak Queue Occupancy Statistics (Absolute Max) ======
  Overall Max VC Occupancy = 1
  Overall Max Buffer Occupancy = 48
latency change    = 0.17738
throughput change = 0.0237133
Class 0:
Packet latency average = 414.56
	minimum = 11
	maximum = 6045
	95th percentile = 999.5
	99th percentile = 999.5
Network latency average = 68.8756
	minimum = 11
	maximum = 2168
	95th percentile = 271.5
	99th percentile = 583.5
Slowest packet = 158904
Flit latency average = 68.874
	minimum = 11
	maximum = 2168
	95th percentile = 271.5
	99th percentile = 583.5
Slowest flit = 179146
Fragmentation average = 0
	minimum = 0
	maximum = 0
Injected packet rate average = 0.570414
	minimum = 0.520619 (at node 8)
	maximum = 0.588476 (at node 4)
Accepted packet rate average = 0.569069
	minimum = 0.519429 (at node 0)
	maximum = 0.587444 (at node 8)
Injected flit rate average = 0.570414
	minimum = 0.520619 (at node 8)
	maximum = 0.588476 (at node 4)
Accepted flit rate average= 0.569069
	minimum = 0.519429 (at node 0)
	maximum = 0.587444 (at node 8)
Injected packet length average = 1
Accepted packet length average = 1
Total in-flight flits = 773 (773 measured)
====== Peak Queue Occupancy Statistics (Absolute Max) ======
  Overall Max VC Occupancy = 1
  Overall Max Buffer Occupancy = 48
latency change    = 0.118392
throughput change = 0.0191383
Class 0:
Packet latency average = 461.03
	minimum = 11
	maximum = 6957
	95th percentile = 999.5
	99th percentile = 999.5
Network latency average = 70.8976
	minimum = 11
	maximum = 2168
	95th percentile = 281.5
	99th percentile = 593.5
Slowest packet = 158904
Flit latency average = 70.8961
	minimum = 11
	maximum = 2168
	95th percentile = 281.5
	99th percentile = 593.5
Slowest flit = 179146
Fragmentation average = 0
	minimum = 0
	maximum = 0
Injected packet rate average = 0.579111
	minimum = 0.526576 (at node 8)
	maximum = 0.597621 (at node 4)
Accepted packet rate average = 0.577923
	minimum = 0.525288 (at node 0)
	maximum = 0.597 (at node 8)
Injected flit rate average = 0.579111
	minimum = 0.526576 (at node 8)
	maximum = 0.597621 (at node 4)
Accepted flit rate average= 0.577923
	minimum = 0.525288 (at node 0)
	maximum = 0.597 (at node 8)
Injected packet length average = 1
Accepted packet length average = 1
Total in-flight flits = 716 (716 measured)
====== Peak Queue Occupancy Statistics (Absolute Max) ======
  Overall Max VC Occupancy = 1
  Overall Max Buffer Occupancy = 48
latency change    = 0.100794
throughput change = 0.01532
Class 0:
Packet latency average = 513.924
	minimum = 11
	maximum = 7040
	95th percentile = 999.5
	99th percentile = 999.5
Network latency average = 72.932
	minimum = 11
	maximum = 2168
	95th percentile = 285.5
	99th percentile = 592.5
Slowest packet = 158904
Flit latency average = 72.9305
	minimum = 11
	maximum = 2168
	95th percentile = 285.5
	99th percentile = 592.5
Slowest flit = 179146
Fragmentation average = 0
	minimum = 0
	maximum = 0
Injected packet rate average = 0.589684
	minimum = 0.538145 (at node 8)
	maximum = 0.606565 (at node 4)
Accepted packet rate average = 0.588346
	minimum = 0.536217 (at node 0)
	maximum = 0.605884 (at node 8)
Injected flit rate average = 0.589684
	minimum = 0.538145 (at node 8)
	maximum = 0.606565 (at node 4)
Accepted flit rate average= 0.588346
	minimum = 0.536217 (at node 0)
	maximum = 0.605884 (at node 8)
Injected packet length average = 1
Accepted packet length average = 1
Total in-flight flits = 840 (840 measured)
====== Peak Queue Occupancy Statistics (Absolute Max) ======
  Overall Max VC Occupancy = 1
  Overall Max Buffer Occupancy = 48
latency change    = 0.102922
throughput change = 0.0177169
Class 0:
Packet latency average = 554.775
	minimum = 11
	maximum = 7040
	95th percentile = 999.5
	99th percentile = 999.5
Network latency average = 74.2311
	minimum = 11
	maximum = 2168
	95th percentile = 288.5
	99th percentile = 590.5
Slowest packet = 158904
Flit latency average = 74.2296
	minimum = 11
	maximum = 2168
	95th percentile = 288.5
	99th percentile = 590.5
Slowest flit = 179146
Fragmentation average = 0
	minimum = 0
	maximum = 0
Injected packet rate average = 0.598326
	minimum = 0.546958 (at node 8)
	maximum = 0.614514 (at node 4)
Accepted packet rate average = 0.597201
	minimum = 0.545833 (at node 0)
	maximum = 0.613472 (at node 8)
Injected flit rate average = 0.598326
	minimum = 0.546958 (at node 8)
	maximum = 0.614514 (at node 4)
Accepted flit rate average= 0.597201
	minimum = 0.545833 (at node 0)
	maximum = 0.613472 (at node 8)
Injected packet length average = 1
Accepted packet length average = 1
Total in-flight flits = 740 (740 measured)
====== Peak Queue Occupancy Statistics (Absolute Max) ======
  Overall Max VC Occupancy = 1
  Overall Max Buffer Occupancy = 48
latency change    = 0.0736351
throughput change = 0.0148265
Draining all recorded packets ...
Class 0:
Remaining flits: 393566 394026 394192 394676 394680 394726 394749 394874 394956 395108 [...] (838 flits)
Measured flits: 393566 394026 394680 394726 394749 394874 394956 395317 395371 395535 [...] (330 flits)
Class 0:
Remaining flits: 401812 401821 401865 402012 402145 402484 402530 402532 402585 402775 [...] (799 flits)
Measured flits: 401821 402012 402145 402484 402532 402775 402849 402940 403001 403042 [...] (100 flits)
Class 0:
Remaining flits: 405168 405769 406149 406899 407079 407719 407752 407899 408187 408330 [...] (787 flits)
Measured flits: 406149 406899 407719 408187 408330 408450 409248 409464 409651 409819 [...] (70 flits)
Class 0:
Remaining flits: 415049 415478 415722 415898 415923 416060 416346 416347 416403 416450 [...] (734 flits)
Measured flits: 416403 416450 416497 416682 416727 417118 417166 417254 417270 417317 [...] (88 flits)
Class 0:
Remaining flits: 418605 419144 419616 419846 420538 420555 420792 421812 421904 422060 [...] (780 flits)
Measured flits: 420538 420555 422988 423096 423332 423381 423415 423581 423764 423778 [...] (100 flits)
Class 0:
Remaining flits: 425920 426019 426336 426353 426385 426638 426670 426685 426717 426974 [...] (758 flits)
Measured flits: 427415 427585 430402 431196 431564 431606 431666 431795 431822 431838 [...] (77 flits)
Class 0:
Remaining flits: 426974 427185 427309 427491 427739 427872 428148 428658 428966 429097 [...] (850 flits)
Measured flits: 436018 437113 437342 437724 437771 437876 438008 438065 438221 438279 [...] (137 flits)
Draining remaining packets ...
Time taken is 86092 cycles
====== Overall Traffic Statistics ======
====== Traffic class 0 ======
Packet latency average = 645.742 (1 samples)
	minimum = 11 (1 samples)
	maximum = 8525 (1 samples)
Network latency average = 75.8798 (1 samples)
	minimum = 11 (1 samples)
	maximum = 2168 (1 samples)
Flit latency average = 79.1653 (1 samples)
	minimum = 11 (1 samples)
	maximum = 2346 (1 samples)
Fragmentation average = 0 (1 samples)
	minimum = 0 (1 samples)
	maximum = 0 (1 samples)
Injected packet rate average = 0.598326 (1 samples)
	minimum = 0.546958 (1 samples)
	maximum = 0.614514 (1 samples)
Accepted packet rate average = 0.597201 (1 samples)
	minimum = 0.545833 (1 samples)
	maximum = 0.613472 (1 samples)
Injected flit rate average = 0.598326 (1 samples)
	minimum = 0.546958 (1 samples)
	maximum = 0.614514 (1 samples)
Accepted flit rate average = 0.597201 (1 samples)
	minimum = 0.545833 (1 samples)
	maximum = 0.613472 (1 samples)
Injected packet size average = 1 (1 samples)
Accepted packet size average = 1 (1 samples)
Hops average = 3.95481 (1 samples)
Total run time 29.9188
====== Hybrid Routing Split Statistics ======
XY packets = 136335
Racke packets = 311096
XY fraction = 0.304706
Racke fraction = 0.695294
Flow (0 -> 4) alpha=1 xy_packets=16114 racke_packets=31343 racke_fraction=0.660451
Flow (1 -> 3) alpha=1 xy_packets=16024 racke_packets=34721 racke_fraction=0.684225
Flow (2 -> 6) alpha=1 xy_packets=13267 racke_packets=37487 racke_fraction=0.738602
Flow (3 -> 1) alpha=0.810813 xy_packets=20389 racke_packets=30231 racke_fraction=0.597215
Flow (4 -> 8) alpha=1 xy_packets=14096 racke_packets=36934 racke_fraction=0.72377
Flow (5 -> 7) alpha=1 xy_packets=17760 racke_packets=32878 racke_fraction=0.649275
Flow (6 -> 2) alpha=1 xy_packets=12504 racke_packets=37670 racke_fraction=0.750787
Flow (7 -> 5) alpha=1 xy_packets=13015 racke_packets=37885 racke_fraction=0.744303
Flow (8 -> 0) alpha=1 xy_packets=13166 racke_packets=31947 racke_fraction=0.708155
====== Hybrid Routing Window Statistics ======
Window [0,3000) xy_packets=1387 racke_packets=0 xy_fraction=1
Window [3000,6000) xy_packets=2706 racke_packets=0 xy_fraction=1
Window [6000,9000) xy_packets=4133 racke_packets=0 xy_fraction=1
Window [9000,12000) xy_packets=5433 racke_packets=0 xy_fraction=1
Window [12000,15000) xy_packets=6828 racke_packets=0 xy_fraction=1
Window [15000,18000) xy_packets=8139 racke_packets=0 xy_fraction=1
Window [18000,21000) xy_packets=9511 racke_packets=0 xy_fraction=1
Window [21000,24000) xy_packets=10819 racke_packets=0 xy_fraction=1
Window [24000,27000) xy_packets=12225 racke_packets=0 xy_fraction=1
Window [27000,30000) xy_packets=13513 racke_packets=0 xy_fraction=1
Window [30000,33000) xy_packets=11681 racke_packets=3182 xy_fraction=0.785911
Window [33000,36000) xy_packets=10565 racke_packets=5745 xy_fraction=0.647762
Window [36000,39000) xy_packets=8326 racke_packets=9408 xy_fraction=0.469494
Window [39000,42000) xy_packets=6897 racke_packets=11971 xy_fraction=0.36554
Window [42000,45000) xy_packets=4566 racke_packets=15058 xy_fraction=0.232674
Window [45000,48000) xy_packets=2328 racke_packets=18431 xy_fraction=0.112144
Window [48000,51000) xy_packets=2942 racke_packets=16749 xy_fraction=0.149408
Window [51000,54000) xy_packets=2468 racke_packets=18238 xy_fraction=0.119193
Window [54000,57000) xy_packets=1754 racke_packets=18203 xy_fraction=0.087889
Window [57000,60000) xy_packets=2941 racke_packets=18007 xy_fraction=0.140395
Window [60000,63000) xy_packets=1034 racke_packets=19311 xy_fraction=0.0508233
Window [63000,66000) xy_packets=938 racke_packets=20746 xy_fraction=0.0432577
Window [66000,69000) xy_packets=1239 racke_packets=20097 xy_fraction=0.0580709
Window [69000,72000) xy_packets=1052 racke_packets=19515 xy_fraction=0.0511499
Window [72000,75000) xy_packets=413 racke_packets=21788 xy_fraction=0.0186028
Window [75000,78000) xy_packets=825 racke_packets=20698 xy_fraction=0.0383311
Window [78000,81000) xy_packets=686 racke_packets=20770 xy_fraction=0.0319724
Window [81000,84000) xy_packets=703 racke_packets=20073 xy_fraction=0.0338371
Window [84000,87000) xy_packets=283 racke_packets=13106 xy_fraction=0.0211368

