BEGIN Configuration File: D:\noc_huawei\noc\booksim2-noc_speedup_study\booksim2-noc_speedup_study\tests\data\results\fixed_perm_growth_models_perm_4_3_6_1_8_7_2_5_0_peak_0p8_current_defaults\tmp_configs\linear_scale_racke_tree_s2201.config
num_vcs     = 48;
vc_buf_size = 16;
wait_for_tail_credit = 1;

vc_allocator = islip;
sw_allocator = islip;
alloc_iters  = 16;

credit_delay   = 2;
routing_delay  = 0;
vc_alloc_delay = 1;
sw_alloc_delay = 1;
st_final_delay = 1;

input_speedup     = 1;
output_speedup    = 1;
internal_speedup  = 2.0;

sim_type = latency;
latency_thres  = 100000.0;
sim_count      = 1;
queue_sample_period_cycles = 0;

topology = mesh;
k  = 3;
n  = 2;

hybrid_transition_mode = linear_prob;
hybrid_xy_low_threshold = 0.35;
hybrid_racke_high_threshold = 0.65;
hybrid_buffer_soft_threshold = 0.50;
hybrid_buffer_hard_threshold = 0.85;
hybrid_buffer_release_threshold = 0.35;
hybrid_rate_soft_threshold = 0.55;
hybrid_rate_hard_threshold = 0.90;
hybrid_rate_weight = 0.25;
hybrid_congestion_alpha = 0.25;
hybrid_racke_increase_step = 0.25;
hybrid_racke_decrease_step = 0.10;
hybrid_epoch_cycles = 200;
hybrid_hold_cycles = 600;
hybrid_enable_midflight_override = 1;
hybrid_feedback_delay_per_hop = 1;
hybrid_flow_increase_step = 0.20;
hybrid_flow_decrease_step = 0.08;
hybrid_flow_hard_threshold = 0.95;

packet_size = 1;


ordered_injection_coefficients = {0.1666666667,0.3333333333,0.5};
ordered_injection_phase_cycles = {1000,1000,1000};
ordered_injection_source_order = {4,0,7,2,8,1,5,3,6};
ordered_injection_flow_peak_rate = 0.60;
warmup_periods = 2;
custom_perm_array = {4,3,6,1,8,7,2,5,0};
injection_process = scheduled;
injection_rate = 0.8;
scheduled_default_phase_cycles = 3000;
perm_seed = 2201;
hybrid_flow_hotspot_alpha = 0.85;
hybrid_stats_window_cycles = 3000;
hybrid_flow_hotspot_threshold = 1.1;
sample_period = 3000;
scheduled_injection_rates = {0.05,0.1,0.15,0.2,0.25,0.3,0.35,0.4,0.45,0.5,0.55,0.6,0.65,0.7,0.75,0.8,0.8,0.8};
traffic = custom_perm;
routing_function = racke_tree;
scheduled_phase_cycles = {3000,3000,3000,3000,3000,3000,3000,3000,3000,3000,3000,3000,3000,3000,3000,3000,3000,3000};
seed = 2201;
max_samples = 26;

END Configuration File: D:\noc_huawei\noc\booksim2-noc_speedup_study\booksim2-noc_speedup_study\tests\data\results\fixed_perm_growth_models_perm_4_3_6_1_8_7_2_5_0_peak_0p8_current_defaults\tmp_configs\linear_scale_racke_tree_s2201.config
Class 0:
Packet latency average = 14.4368
	minimum = 11
	maximum = 18
	95th percentile = 17.5
	99th percentile = 18.5
Network latency average = 14.4368
	minimum = 11
	maximum = 18
	95th percentile = 17.5
	99th percentile = 18.5
Slowest packet = 5
Flit latency average = 14.4368
	minimum = 11
	maximum = 18
	95th percentile = 17.5
	99th percentile = 18.5
Slowest flit = 5
Fragmentation average = 0
	minimum = 0
	maximum = 0
Injected packet rate average = 0.0482963
	minimum = 0.044 (at node 4)
	maximum = 0.054 (at node 6)
Accepted packet rate average = 0.0480741
	minimum = 0.0436667 (at node 8)
	maximum = 0.054 (at node 2)
Injected flit rate average = 0.0482963
	minimum = 0.044 (at node 4)
	maximum = 0.054 (at node 6)
Accepted flit rate average= 0.0480741
	minimum = 0.0436667 (at node 8)
	maximum = 0.054 (at node 2)
Injected packet length average = 1
Accepted packet length average = 1
Total in-flight flits = 6 (0 measured)
====== Peak Queue Occupancy Statistics (Absolute Max) ======
  Overall Max VC Occupancy = 1
  Overall Max Buffer Occupancy = 2
latency change    = 1
throughput change = 1
Class 0:
Packet latency average = 14.4585
	minimum = 11
	maximum = 19
	95th percentile = 18.5
	99th percentile = 18.5
Network latency average = 14.4585
	minimum = 11
	maximum = 19
	95th percentile = 18.5
	99th percentile = 18.5
Slowest packet = 1415
Flit latency average = 14.4585
	minimum = 11
	maximum = 19
	95th percentile = 18.5
	99th percentile = 18.5
Slowest flit = 1415
Fragmentation average = 0
	minimum = 0
	maximum = 0
Injected packet rate average = 0.0745926
	minimum = 0.069 (at node 8)
	maximum = 0.0791667 (at node 1)
Accepted packet rate average = 0.0742407
	minimum = 0.0688333 (at node 0)
	maximum = 0.0788333 (at node 3)
Injected flit rate average = 0.0745926
	minimum = 0.069 (at node 8)
	maximum = 0.0791667 (at node 1)
Accepted flit rate average= 0.0742407
	minimum = 0.0688333 (at node 0)
	maximum = 0.0788333 (at node 3)
Injected packet length average = 1
Accepted packet length average = 1
Total in-flight flits = 19 (0 measured)
====== Peak Queue Occupancy Statistics (Absolute Max) ======
  Overall Max VC Occupancy = 1
  Overall Max Buffer Occupancy = 2
latency change    = 0.00149688
throughput change = 0.352457
Warmed up ...Time used is 6000 cycles
Class 0:
Packet latency average = 14.5498
	minimum = 11
	maximum = 20
	95th percentile = 18.5
	99th percentile = 19.5
Network latency average = 14.5498
	minimum = 11
	maximum = 20
	95th percentile = 18.5
	99th percentile = 19.5
Slowest packet = 4410
Flit latency average = 14.5497
	minimum = 11
	maximum = 20
	95th percentile = 18.5
	99th percentile = 19.5
Slowest flit = 4410
Fragmentation average = 0
	minimum = 0
	maximum = 0
Injected packet rate average = 0.148667
	minimum = 0.134333 (at node 1)
	maximum = 0.155 (at node 8)
Accepted packet rate average = 0.148556
	minimum = 0.134333 (at node 3)
	maximum = 0.154667 (at node 0)
Injected flit rate average = 0.148667
	minimum = 0.134333 (at node 1)
	maximum = 0.155 (at node 8)
Accepted flit rate average= 0.148556
	minimum = 0.134333 (at node 3)
	maximum = 0.154667 (at node 0)
Injected packet length average = 1
Accepted packet length average = 1
Total in-flight flits = 22 (22 measured)
====== Peak Queue Occupancy Statistics (Absolute Max) ======
  Overall Max VC Occupancy = 1
  Overall Max Buffer Occupancy = 2
latency change    = 0.00628056
throughput change = 0.500249
Class 0:
Packet latency average = 14.6092
	minimum = 11
	maximum = 22
	95th percentile = 18.5
	99th percentile = 19.5
Network latency average = 14.6092
	minimum = 11
	maximum = 22
	95th percentile = 18.5
	99th percentile = 19.5
Slowest packet = 13111
Flit latency average = 14.609
	minimum = 11
	maximum = 22
	95th percentile = 18.5
	99th percentile = 19.5
Slowest flit = 13111
Fragmentation average = 0
	minimum = 0
	maximum = 0
Injected packet rate average = 0.173815
	minimum = 0.167667 (at node 1)
	maximum = 0.1795 (at node 2)
Accepted packet rate average = 0.17363
	minimum = 0.167333 (at node 3)
	maximum = 0.179167 (at node 6)
Injected flit rate average = 0.173815
	minimum = 0.167667 (at node 1)
	maximum = 0.1795 (at node 2)
Accepted flit rate average= 0.17363
	minimum = 0.167333 (at node 3)
	maximum = 0.179167 (at node 6)
Injected packet length average = 1
Accepted packet length average = 1
Total in-flight flits = 29 (29 measured)
====== Peak Queue Occupancy Statistics (Absolute Max) ======
  Overall Max VC Occupancy = 1
  Overall Max Buffer Occupancy = 2
latency change    = 0.00406046
throughput change = 0.144411
Class 0:
Packet latency average = 14.6654
	minimum = 11
	maximum = 24
	95th percentile = 18.5
	99th percentile = 19.5
Network latency average = 14.6654
	minimum = 11
	maximum = 24
	95th percentile = 18.5
	99th percentile = 19.5
Slowest packet = 18793
Flit latency average = 14.6652
	minimum = 11
	maximum = 24
	95th percentile = 18.5
	99th percentile = 19.5
Slowest flit = 18793
Fragmentation average = 0
	minimum = 0
	maximum = 0
Injected packet rate average = 0.198556
	minimum = 0.196 (at node 1)
	maximum = 0.205667 (at node 7)
Accepted packet rate average = 0.198272
	minimum = 0.195444 (at node 0)
	maximum = 0.205333 (at node 5)
Injected flit rate average = 0.198556
	minimum = 0.196 (at node 1)
	maximum = 0.205667 (at node 7)
Accepted flit rate average= 0.198272
	minimum = 0.195444 (at node 0)
	maximum = 0.205333 (at node 5)
Injected packet length average = 1
Accepted packet length average = 1
Total in-flight flits = 42 (42 measured)
====== Peak Queue Occupancy Statistics (Absolute Max) ======
  Overall Max VC Occupancy = 1
  Overall Max Buffer Occupancy = 2
latency change    = 0.00383134
throughput change = 0.124284
Class 0:
Packet latency average = 14.7445
	minimum = 11
	maximum = 24
	95th percentile = 19.5
	99th percentile = 20.5
Network latency average = 14.7445
	minimum = 11
	maximum = 24
	95th percentile = 19.5
	99th percentile = 20.5
Slowest packet = 18793
Flit latency average = 14.7443
	minimum = 11
	maximum = 24
	95th percentile = 19.5
	99th percentile = 20.5
Slowest flit = 18793
Fragmentation average = 0
	minimum = 0
	maximum = 0
Injected packet rate average = 0.225056
	minimum = 0.223083 (at node 6)
	maximum = 0.229167 (at node 7)
Accepted packet rate average = 0.224917
	minimum = 0.223083 (at node 2)
	maximum = 0.229 (at node 5)
Injected flit rate average = 0.225056
	minimum = 0.223083 (at node 6)
	maximum = 0.229167 (at node 7)
Accepted flit rate average= 0.224917
	minimum = 0.223083 (at node 2)
	maximum = 0.229 (at node 5)
Injected packet length average = 1
Accepted packet length average = 1
Total in-flight flits = 34 (34 measured)
====== Peak Queue Occupancy Statistics (Absolute Max) ======
  Overall Max VC Occupancy = 1
  Overall Max Buffer Occupancy = 2
latency change    = 0.00536897
throughput change = 0.118466
Class 0:
Packet latency average = 14.8174
	minimum = 11
	maximum = 24
	95th percentile = 19.5
	99th percentile = 20.5
Network latency average = 14.8174
	minimum = 11
	maximum = 24
	95th percentile = 19.5
	99th percentile = 20.5
Slowest packet = 18793
Flit latency average = 14.8172
	minimum = 11
	maximum = 24
	95th percentile = 19.5
	99th percentile = 20.5
Slowest flit = 18793
Fragmentation average = 0
	minimum = 0
	maximum = 0
Injected packet rate average = 0.250067
	minimum = 0.244467 (at node 6)
	maximum = 0.255133 (at node 7)
Accepted packet rate average = 0.249822
	minimum = 0.244067 (at node 2)
	maximum = 0.255133 (at node 5)
Injected flit rate average = 0.250067
	minimum = 0.244467 (at node 6)
	maximum = 0.255133 (at node 7)
Accepted flit rate average= 0.249822
	minimum = 0.244067 (at node 2)
	maximum = 0.255133 (at node 5)
Injected packet length average = 1
Accepted packet length average = 1
Total in-flight flits = 52 (52 measured)
====== Peak Queue Occupancy Statistics (Absolute Max) ======
  Overall Max VC Occupancy = 1
  Overall Max Buffer Occupancy = 2
latency change    = 0.00491632
throughput change = 0.0996931
Class 0:
Packet latency average = 14.9066
	minimum = 11
	maximum = 24
	95th percentile = 19.5
	99th percentile = 20.5
Network latency average = 14.9066
	minimum = 11
	maximum = 24
	95th percentile = 19.5
	99th percentile = 20.5
Slowest packet = 18793
Flit latency average = 14.9065
	minimum = 11
	maximum = 24
	95th percentile = 19.5
	99th percentile = 20.5
Slowest flit = 18793
Fragmentation average = 0
	minimum = 0
	maximum = 0
Injected packet rate average = 0.275395
	minimum = 0.270167 (at node 6)
	maximum = 0.279444 (at node 7)
Accepted packet rate average = 0.275117
	minimum = 0.269944 (at node 2)
	maximum = 0.279111 (at node 5)
Injected flit rate average = 0.275395
	minimum = 0.270167 (at node 6)
	maximum = 0.279444 (at node 7)
Accepted flit rate average= 0.275117
	minimum = 0.269944 (at node 2)
	maximum = 0.279111 (at node 5)
Injected packet length average = 1
Accepted packet length average = 1
Total in-flight flits = 64 (64 measured)
====== Peak Queue Occupancy Statistics (Absolute Max) ======
  Overall Max VC Occupancy = 1
  Overall Max Buffer Occupancy = 2
latency change    = 0.00598907
throughput change = 0.0919428
Class 0:
Packet latency average = 15.0079
	minimum = 11
	maximum = 25
	95th percentile = 19.5
	99th percentile = 21.5
Network latency average = 15.0079
	minimum = 11
	maximum = 25
	95th percentile = 19.5
	99th percentile = 21.5
Slowest packet = 49137
Flit latency average = 15.0078
	minimum = 11
	maximum = 25
	95th percentile = 19.5
	99th percentile = 21.5
Slowest flit = 49137
Fragmentation average = 0
	minimum = 0
	maximum = 0
Injected packet rate average = 0.300259
	minimum = 0.298476 (at node 6)
	maximum = 0.303571 (at node 7)
Accepted packet rate average = 0.300021
	minimum = 0.298238 (at node 0)
	maximum = 0.303238 (at node 5)
Injected flit rate average = 0.300259
	minimum = 0.298476 (at node 6)
	maximum = 0.303571 (at node 7)
Accepted flit rate average= 0.300021
	minimum = 0.298238 (at node 0)
	maximum = 0.303238 (at node 5)
Injected packet length average = 1
Accepted packet length average = 1
Total in-flight flits = 64 (64 measured)
====== Peak Queue Occupancy Statistics (Absolute Max) ======
  Overall Max VC Occupancy = 1
  Overall Max Buffer Occupancy = 2
latency change    = 0.00674822
throughput change = 0.0830071
Class 0:
Packet latency average = 15.1203
	minimum = 11
	maximum = 25
	95th percentile = 20.5
	99th percentile = 21.5
Network latency average = 15.1203
	minimum = 11
	maximum = 25
	95th percentile = 20.5
	99th percentile = 21.5
Slowest packet = 49137
Flit latency average = 15.1201
	minimum = 11
	maximum = 25
	95th percentile = 20.5
	99th percentile = 21.5
Slowest flit = 49137
Fragmentation average = 0
	minimum = 0
	maximum = 0
Injected packet rate average = 0.325829
	minimum = 0.322833 (at node 4)
	maximum = 0.330417 (at node 2)
Accepted packet rate average = 0.325593
	minimum = 0.3225 (at node 8)
	maximum = 0.330083 (at node 6)
Injected flit rate average = 0.325829
	minimum = 0.322833 (at node 4)
	maximum = 0.330417 (at node 2)
Accepted flit rate average= 0.325593
	minimum = 0.3225 (at node 8)
	maximum = 0.330083 (at node 6)
Injected packet length average = 1
Accepted packet length average = 1
Total in-flight flits = 70 (70 measured)
====== Peak Queue Occupancy Statistics (Absolute Max) ======
  Overall Max VC Occupancy = 1
  Overall Max Buffer Occupancy = 2
latency change    = 0.00743217
throughput change = 0.0785381
Class 0:
Packet latency average = 15.2215
	minimum = 11
	maximum = 26
	95th percentile = 20.5
	99th percentile = 21.5
Network latency average = 15.2215
	minimum = 11
	maximum = 26
	95th percentile = 20.5
	99th percentile = 21.5
Slowest packet = 82896
Flit latency average = 15.2213
	minimum = 11
	maximum = 26
	95th percentile = 20.5
	99th percentile = 21.5
Slowest flit = 82896
Fragmentation average = 0
	minimum = 0
	maximum = 0
Injected packet rate average = 0.350494
	minimum = 0.346889 (at node 4)
	maximum = 0.355333 (at node 2)
Accepted packet rate average = 0.350259
	minimum = 0.346704 (at node 8)
	maximum = 0.354926 (at node 6)
Injected flit rate average = 0.350494
	minimum = 0.346889 (at node 4)
	maximum = 0.355333 (at node 2)
Accepted flit rate average= 0.350259
	minimum = 0.346704 (at node 8)
	maximum = 0.354926 (at node 6)
Injected packet length average = 1
Accepted packet length average = 1
Total in-flight flits = 76 (76 measured)
====== Peak Queue Occupancy Statistics (Absolute Max) ======
  Overall Max VC Occupancy = 1
  Overall Max Buffer Occupancy = 2
latency change    = 0.00664841
throughput change = 0.070424
Class 0:
Packet latency average = 15.3301
	minimum = 11
	maximum = 26
	95th percentile = 20.5
	99th percentile = 21.5
Network latency average = 15.3301
	minimum = 11
	maximum = 26
	95th percentile = 20.5
	99th percentile = 21.5
Slowest packet = 82896
Flit latency average = 15.3299
	minimum = 11
	maximum = 26
	95th percentile = 20.5
	99th percentile = 21.5
Slowest flit = 82896
Fragmentation average = 0
	minimum = 0
	maximum = 0
Injected packet rate average = 0.375241
	minimum = 0.371167 (at node 4)
	maximum = 0.378733 (at node 2)
Accepted packet rate average = 0.374996
	minimum = 0.3709 (at node 8)
	maximum = 0.378467 (at node 6)
Injected flit rate average = 0.375241
	minimum = 0.371167 (at node 4)
	maximum = 0.378733 (at node 2)
Accepted flit rate average= 0.374996
	minimum = 0.3709 (at node 8)
	maximum = 0.378467 (at node 6)
Injected packet length average = 1
Accepted packet length average = 1
Total in-flight flits = 85 (85 measured)
====== Peak Queue Occupancy Statistics (Absolute Max) ======
  Overall Max VC Occupancy = 1
  Overall Max Buffer Occupancy = 2
latency change    = 0.00708369
throughput change = 0.0659661
Class 0:
Packet latency average = 15.4473
	minimum = 11
	maximum = 26
	95th percentile = 20.5
	99th percentile = 22.5
Network latency average = 15.4473
	minimum = 11
	maximum = 26
	95th percentile = 20.5
	99th percentile = 22.5
Slowest packet = 82896
Flit latency average = 15.4471
	minimum = 11
	maximum = 26
	95th percentile = 20.5
	99th percentile = 22.5
Slowest flit = 82896
Fragmentation average = 0
	minimum = 0
	maximum = 0
Injected packet rate average = 0.39997
	minimum = 0.396636 (at node 4)
	maximum = 0.403212 (at node 2)
Accepted packet rate average = 0.39971
	minimum = 0.396303 (at node 8)
	maximum = 0.402788 (at node 6)
Injected flit rate average = 0.39997
	minimum = 0.396636 (at node 4)
	maximum = 0.403212 (at node 2)
Accepted flit rate average= 0.39971
	minimum = 0.396303 (at node 8)
	maximum = 0.402788 (at node 6)
Injected packet length average = 1
Accepted packet length average = 1
Total in-flight flits = 96 (96 measured)
====== Peak Queue Occupancy Statistics (Absolute Max) ======
  Overall Max VC Occupancy = 1
  Overall Max Buffer Occupancy = 3
latency change    = 0.00758543
throughput change = 0.0618301
Class 0:
Packet latency average = 15.5822
	minimum = 11
	maximum = 26
	95th percentile = 21.5
	99th percentile = 22.5
Network latency average = 15.5822
	minimum = 11
	maximum = 26
	95th percentile = 21.5
	99th percentile = 22.5
Slowest packet = 82896
Flit latency average = 15.582
	minimum = 11
	maximum = 26
	95th percentile = 21.5
	99th percentile = 22.5
Slowest flit = 82896
Fragmentation average = 0
	minimum = 0
	maximum = 0
Injected packet rate average = 0.42488
	minimum = 0.422361 (at node 4)
	maximum = 0.428722 (at node 2)
Accepted packet rate average = 0.424596
	minimum = 0.422056 (at node 8)
	maximum = 0.428306 (at node 6)
Injected flit rate average = 0.42488
	minimum = 0.422361 (at node 4)
	maximum = 0.428722 (at node 2)
Accepted flit rate average= 0.424596
	minimum = 0.422056 (at node 8)
	maximum = 0.428306 (at node 6)
Injected packet length average = 1
Accepted packet length average = 1
Total in-flight flits = 111 (111 measured)
====== Peak Queue Occupancy Statistics (Absolute Max) ======
  Overall Max VC Occupancy = 1
  Overall Max Buffer Occupancy = 3
latency change    = 0.00865934
throughput change = 0.0586093
Class 0:
Packet latency average = 15.7478
	minimum = 11
	maximum = 27
	95th percentile = 21.5
	99th percentile = 22.5
Network latency average = 15.7478
	minimum = 11
	maximum = 27
	95th percentile = 21.5
	99th percentile = 22.5
Slowest packet = 141632
Flit latency average = 15.7476
	minimum = 11
	maximum = 27
	95th percentile = 21.5
	99th percentile = 22.5
Slowest flit = 141632
Fragmentation average = 0
	minimum = 0
	maximum = 0
Injected packet rate average = 0.450128
	minimum = 0.447385 (at node 4)
	maximum = 0.453128 (at node 2)
Accepted packet rate average = 0.44986
	minimum = 0.447128 (at node 8)
	maximum = 0.452769 (at node 6)
Injected flit rate average = 0.450128
	minimum = 0.447385 (at node 4)
	maximum = 0.453128 (at node 2)
Accepted flit rate average= 0.44986
	minimum = 0.447128 (at node 8)
	maximum = 0.452769 (at node 6)
Injected packet length average = 1
Accepted packet length average = 1
Total in-flight flits = 113 (113 measured)
====== Peak Queue Occupancy Statistics (Absolute Max) ======
  Overall Max VC Occupancy = 1
  Overall Max Buffer Occupancy = 3
latency change    = 0.0105136
throughput change = 0.0561612
Class 0:
Packet latency average = 15.9501
	minimum = 11
	maximum = 28
	95th percentile = 21.5
	99th percentile = 23.5
Network latency average = 15.9501
	minimum = 11
	maximum = 28
	95th percentile = 21.5
	99th percentile = 23.5
Slowest packet = 162207
Flit latency average = 15.9499
	minimum = 11
	maximum = 28
	95th percentile = 21.5
	99th percentile = 23.5
Slowest flit = 162207
Fragmentation average = 0
	minimum = 0
	maximum = 0
Injected packet rate average = 0.474802
	minimum = 0.472524 (at node 4)
	maximum = 0.477667 (at node 2)
Accepted packet rate average = 0.474516
	minimum = 0.47219 (at node 8)
	maximum = 0.47731 (at node 6)
Injected flit rate average = 0.474802
	minimum = 0.472524 (at node 4)
	maximum = 0.477667 (at node 2)
Accepted flit rate average= 0.474516
	minimum = 0.47219 (at node 8)
	maximum = 0.47731 (at node 6)
Injected packet length average = 1
Accepted packet length average = 1
Total in-flight flits = 127 (127 measured)
====== Peak Queue Occupancy Statistics (Absolute Max) ======
  Overall Max VC Occupancy = 1
  Overall Max Buffer Occupancy = 3
latency change    = 0.0126832
throughput change = 0.0519592
Class 0:
Packet latency average = 16.118
	minimum = 11
	maximum = 28
	95th percentile = 22.5
	99th percentile = 24.5
Network latency average = 16.118
	minimum = 11
	maximum = 28
	95th percentile = 22.5
	99th percentile = 24.5
Slowest packet = 162207
Flit latency average = 16.1178
	minimum = 11
	maximum = 28
	95th percentile = 22.5
	99th percentile = 24.5
Slowest flit = 162207
Fragmentation average = 0
	minimum = 0
	maximum = 0
Injected packet rate average = 0.496388
	minimum = 0.494267 (at node 4)
	maximum = 0.498689 (at node 2)
Accepted packet rate average = 0.496133
	minimum = 0.494044 (at node 8)
	maximum = 0.498311 (at node 6)
Injected flit rate average = 0.496388
	minimum = 0.494267 (at node 4)
	maximum = 0.498689 (at node 2)
Accepted flit rate average= 0.496133
	minimum = 0.494044 (at node 8)
	maximum = 0.498311 (at node 6)
Injected packet length average = 1
Accepted packet length average = 1
Total in-flight flits = 122 (122 measured)
====== Peak Queue Occupancy Statistics (Absolute Max) ======
  Overall Max VC Occupancy = 1
  Overall Max Buffer Occupancy = 3
latency change    = 0.0104195
throughput change = 0.0435719
Class 0:
Packet latency average = 16.2462
	minimum = 11
	maximum = 29
	95th percentile = 22.5
	99th percentile = 24.5
Network latency average = 16.2462
	minimum = 11
	maximum = 29
	95th percentile = 22.5
	99th percentile = 24.5
Slowest packet = 210572
Flit latency average = 16.2461
	minimum = 11
	maximum = 29
	95th percentile = 22.5
	99th percentile = 24.5
Slowest flit = 210572
Fragmentation average = 0
	minimum = 0
	maximum = 0
Injected packet rate average = 0.515127
	minimum = 0.512708 (at node 4)
	maximum = 0.517354 (at node 2)
Accepted packet rate average = 0.514863
	minimum = 0.512437 (at node 8)
	maximum = 0.516979 (at node 6)
Injected flit rate average = 0.515127
	minimum = 0.512708 (at node 4)
	maximum = 0.517354 (at node 2)
Accepted flit rate average= 0.514863
	minimum = 0.512437 (at node 8)
	maximum = 0.516979 (at node 6)
Injected packet length average = 1
Accepted packet length average = 1
Total in-flight flits = 133 (133 measured)
====== Peak Queue Occupancy Statistics (Absolute Max) ======
  Overall Max VC Occupancy = 1
  Overall Max Buffer Occupancy = 3
latency change    = 0.00789344
throughput change = 0.0363788
Class 0:
Packet latency average = 16.3536
	minimum = 11
	maximum = 29
	95th percentile = 22.5
	99th percentile = 24.5
Network latency average = 16.3536
	minimum = 11
	maximum = 29
	95th percentile = 22.5
	99th percentile = 24.5
Slowest packet = 210572
Flit latency average = 16.3534
	minimum = 11
	maximum = 29
	95th percentile = 22.5
	99th percentile = 24.5
Slowest flit = 210572
Fragmentation average = 0
	minimum = 0
	maximum = 0
Injected packet rate average = 0.531636
	minimum = 0.529647 (at node 6)
	maximum = 0.533412 (at node 2)
Accepted packet rate average = 0.531403
	minimum = 0.529412 (at node 2)
	maximum = 0.533098 (at node 4)
Injected flit rate average = 0.531636
	minimum = 0.529647 (at node 6)
	maximum = 0.533412 (at node 2)
Accepted flit rate average= 0.531403
	minimum = 0.529412 (at node 2)
	maximum = 0.533098 (at node 4)
Injected packet length average = 1
Accepted packet length average = 1
Total in-flight flits = 126 (126 measured)
====== Peak Queue Occupancy Statistics (Absolute Max) ======
  Overall Max VC Occupancy = 1
  Overall Max Buffer Occupancy = 3
latency change    = 0.00656393
throughput change = 0.0311244
Draining all recorded packets ...
Draining remaining packets ...
Time taken is 57046 cycles
====== Overall Traffic Statistics ======
====== Traffic class 0 ======
Packet latency average = 16.3546 (1 samples)
	minimum = 11 (1 samples)
	maximum = 29 (1 samples)
Network latency average = 16.3546 (1 samples)
	minimum = 11 (1 samples)
	maximum = 29 (1 samples)
Flit latency average = 16.3545 (1 samples)
	minimum = 11 (1 samples)
	maximum = 29 (1 samples)
Fragmentation average = 0 (1 samples)
	minimum = 0 (1 samples)
	maximum = 0 (1 samples)
Injected packet rate average = 0.531636 (1 samples)
	minimum = 0.529647 (1 samples)
	maximum = 0.533412 (1 samples)
Accepted packet rate average = 0.531403 (1 samples)
	minimum = 0.529412 (1 samples)
	maximum = 0.533098 (1 samples)
Injected flit rate average = 0.531636 (1 samples)
	minimum = 0.529647 (1 samples)
	maximum = 0.533412 (1 samples)
Accepted flit rate average = 0.531403 (1 samples)
	minimum = 0.529412 (1 samples)
	maximum = 0.533098 (1 samples)
Injected packet size average = 1 (1 samples)
Accepted packet size average = 1 (1 samples)
Hops average = 4.11089 (1 samples)
Total run time 9.19088

