BEGIN Configuration File: D:\noc_huawei\noc\booksim2-noc_speedup_study\booksim2-noc_speedup_study\tests\data\results\fixed_perm_growth_models_perm_4_3_6_1_8_7_2_5_0_peak_0p8_current_defaults\tmp_configs\linear_scale_racke_tree_s2205.config
num_vcs     = 48;
vc_buf_size = 16;
wait_for_tail_credit = 1;

vc_allocator = islip;
sw_allocator = islip;
alloc_iters  = 16;

credit_delay   = 2;
routing_delay  = 0;
vc_alloc_delay = 1;
sw_alloc_delay = 1;
st_final_delay = 1;

input_speedup     = 1;
output_speedup    = 1;
internal_speedup  = 2.0;

sim_type = latency;
latency_thres  = 100000.0;
sim_count      = 1;
queue_sample_period_cycles = 0;

topology = mesh;
k  = 3;
n  = 2;

hybrid_transition_mode = linear_prob;
hybrid_xy_low_threshold = 0.35;
hybrid_racke_high_threshold = 0.65;
hybrid_buffer_soft_threshold = 0.50;
hybrid_buffer_hard_threshold = 0.85;
hybrid_buffer_release_threshold = 0.35;
hybrid_rate_soft_threshold = 0.55;
hybrid_rate_hard_threshold = 0.90;
hybrid_rate_weight = 0.25;
hybrid_congestion_alpha = 0.25;
hybrid_racke_increase_step = 0.25;
hybrid_racke_decrease_step = 0.10;
hybrid_epoch_cycles = 200;
hybrid_hold_cycles = 600;
hybrid_enable_midflight_override = 1;
hybrid_feedback_delay_per_hop = 1;
hybrid_flow_increase_step = 0.20;
hybrid_flow_decrease_step = 0.08;
hybrid_flow_hard_threshold = 0.95;

packet_size = 1;


ordered_injection_coefficients = {0.1666666667,0.3333333333,0.5};
ordered_injection_phase_cycles = {1000,1000,1000};
ordered_injection_source_order = {4,0,7,2,8,1,5,3,6};
ordered_injection_flow_peak_rate = 0.60;
warmup_periods = 2;
custom_perm_array = {4,3,6,1,8,7,2,5,0};
injection_process = scheduled;
injection_rate = 0.8;
scheduled_default_phase_cycles = 3000;
perm_seed = 2205;
hybrid_flow_hotspot_alpha = 0.85;
hybrid_stats_window_cycles = 3000;
hybrid_flow_hotspot_threshold = 1.1;
sample_period = 3000;
scheduled_injection_rates = {0.05,0.1,0.15,0.2,0.25,0.3,0.35,0.4,0.45,0.5,0.55,0.6,0.65,0.7,0.75,0.8,0.8,0.8};
traffic = custom_perm;
routing_function = racke_tree;
scheduled_phase_cycles = {3000,3000,3000,3000,3000,3000,3000,3000,3000,3000,3000,3000,3000,3000,3000,3000,3000,3000};
seed = 2205;
max_samples = 26;

END Configuration File: D:\noc_huawei\noc\booksim2-noc_speedup_study\booksim2-noc_speedup_study\tests\data\results\fixed_perm_growth_models_perm_4_3_6_1_8_7_2_5_0_peak_0p8_current_defaults\tmp_configs\linear_scale_racke_tree_s2205.config
Class 0:
Packet latency average = 14.4186
	minimum = 11
	maximum = 20
	95th percentile = 17.5
	99th percentile = 18.5
Network latency average = 14.4186
	minimum = 11
	maximum = 20
	95th percentile = 17.5
	99th percentile = 18.5
Slowest packet = 98
Flit latency average = 14.4186
	minimum = 11
	maximum = 20
	95th percentile = 17.5
	99th percentile = 18.5
Slowest flit = 98
Fragmentation average = 0
	minimum = 0
	maximum = 0
Injected packet rate average = 0.0508889
	minimum = 0.0463333 (at node 2)
	maximum = 0.0556667 (at node 6)
Accepted packet rate average = 0.0507037
	minimum = 0.046 (at node 6)
	maximum = 0.0553333 (at node 2)
Injected flit rate average = 0.0508889
	minimum = 0.0463333 (at node 2)
	maximum = 0.0556667 (at node 6)
Accepted flit rate average= 0.0507037
	minimum = 0.046 (at node 6)
	maximum = 0.0553333 (at node 2)
Injected packet length average = 1
Accepted packet length average = 1
Total in-flight flits = 5 (0 measured)
====== Peak Queue Occupancy Statistics (Absolute Max) ======
  Overall Max VC Occupancy = 1
  Overall Max Buffer Occupancy = 2
latency change    = 1
throughput change = 1
Class 0:
Packet latency average = 14.4493
	minimum = 11
	maximum = 20
	95th percentile = 18.5
	99th percentile = 18.5
Network latency average = 14.4493
	minimum = 11
	maximum = 20
	95th percentile = 18.5
	99th percentile = 18.5
Slowest packet = 98
Flit latency average = 14.4493
	minimum = 11
	maximum = 20
	95th percentile = 18.5
	99th percentile = 18.5
Slowest flit = 98
Fragmentation average = 0
	minimum = 0
	maximum = 0
Injected packet rate average = 0.0756296
	minimum = 0.073 (at node 2)
	maximum = 0.0803333 (at node 6)
Accepted packet rate average = 0.0753519
	minimum = 0.072 (at node 6)
	maximum = 0.08 (at node 2)
Injected flit rate average = 0.0756296
	minimum = 0.073 (at node 2)
	maximum = 0.0803333 (at node 6)
Accepted flit rate average= 0.0753519
	minimum = 0.072 (at node 6)
	maximum = 0.08 (at node 2)
Injected packet length average = 1
Accepted packet length average = 1
Total in-flight flits = 15 (0 measured)
====== Peak Queue Occupancy Statistics (Absolute Max) ======
  Overall Max VC Occupancy = 1
  Overall Max Buffer Occupancy = 2
latency change    = 0.00212445
throughput change = 0.327107
Warmed up ...Time used is 6000 cycles
Class 0:
Packet latency average = 14.571
	minimum = 11
	maximum = 21
	95th percentile = 18.5
	99th percentile = 19.5
Network latency average = 14.571
	minimum = 11
	maximum = 21
	95th percentile = 18.5
	99th percentile = 19.5
Slowest packet = 7764
Flit latency average = 14.5711
	minimum = 11
	maximum = 21
	95th percentile = 18.5
	99th percentile = 19.5
Slowest flit = 7764
Fragmentation average = 0
	minimum = 0
	maximum = 0
Injected packet rate average = 0.150852
	minimum = 0.142333 (at node 0)
	maximum = 0.163667 (at node 6)
Accepted packet rate average = 0.150519
	minimum = 0.142 (at node 4)
	maximum = 0.163 (at node 2)
Injected flit rate average = 0.150852
	minimum = 0.142333 (at node 0)
	maximum = 0.163667 (at node 6)
Accepted flit rate average= 0.150519
	minimum = 0.142 (at node 4)
	maximum = 0.163 (at node 2)
Injected packet length average = 1
Accepted packet length average = 1
Total in-flight flits = 24 (24 measured)
====== Peak Queue Occupancy Statistics (Absolute Max) ======
  Overall Max VC Occupancy = 1
  Overall Max Buffer Occupancy = 2
latency change    = 0.00835596
throughput change = 0.499385
Class 0:
Packet latency average = 14.5964
	minimum = 11
	maximum = 21
	95th percentile = 18.5
	99th percentile = 19.5
Network latency average = 14.5964
	minimum = 11
	maximum = 21
	95th percentile = 18.5
	99th percentile = 19.5
Slowest packet = 7764
Flit latency average = 14.5964
	minimum = 11
	maximum = 21
	95th percentile = 18.5
	99th percentile = 19.5
Slowest flit = 7764
Fragmentation average = 0
	minimum = 0
	maximum = 0
Injected packet rate average = 0.174056
	minimum = 0.1665 (at node 4)
	maximum = 0.188833 (at node 5)
Accepted packet rate average = 0.173778
	minimum = 0.166167 (at node 8)
	maximum = 0.1885 (at node 7)
Injected flit rate average = 0.174056
	minimum = 0.1665 (at node 4)
	maximum = 0.188833 (at node 5)
Accepted flit rate average= 0.173778
	minimum = 0.166167 (at node 8)
	maximum = 0.1885 (at node 7)
Injected packet length average = 1
Accepted packet length average = 1
Total in-flight flits = 30 (30 measured)
====== Peak Queue Occupancy Statistics (Absolute Max) ======
  Overall Max VC Occupancy = 1
  Overall Max Buffer Occupancy = 2
latency change    = 0.0017422
throughput change = 0.133845
Class 0:
Packet latency average = 14.6659
	minimum = 11
	maximum = 22
	95th percentile = 18.5
	99th percentile = 19.5
Network latency average = 14.6659
	minimum = 11
	maximum = 22
	95th percentile = 18.5
	99th percentile = 19.5
Slowest packet = 19137
Flit latency average = 14.6658
	minimum = 11
	maximum = 22
	95th percentile = 18.5
	99th percentile = 19.5
Slowest flit = 19137
Fragmentation average = 0
	minimum = 0
	maximum = 0
Injected packet rate average = 0.197951
	minimum = 0.193222 (at node 3)
	maximum = 0.204 (at node 5)
Accepted packet rate average = 0.197704
	minimum = 0.193111 (at node 1)
	maximum = 0.203889 (at node 7)
Injected flit rate average = 0.197951
	minimum = 0.193222 (at node 3)
	maximum = 0.204 (at node 5)
Accepted flit rate average= 0.197704
	minimum = 0.193111 (at node 1)
	maximum = 0.203889 (at node 7)
Injected packet length average = 1
Accepted packet length average = 1
Total in-flight flits = 35 (35 measured)
====== Peak Queue Occupancy Statistics (Absolute Max) ======
  Overall Max VC Occupancy = 1
  Overall Max Buffer Occupancy = 2
latency change    = 0.00473338
throughput change = 0.121019
Class 0:
Packet latency average = 14.75
	minimum = 11
	maximum = 23
	95th percentile = 19.5
	99th percentile = 20.5
Network latency average = 14.75
	minimum = 11
	maximum = 23
	95th percentile = 19.5
	99th percentile = 20.5
Slowest packet = 27750
Flit latency average = 14.7499
	minimum = 11
	maximum = 23
	95th percentile = 19.5
	99th percentile = 20.5
Slowest flit = 27750
Fragmentation average = 0
	minimum = 0
	maximum = 0
Injected packet rate average = 0.22413
	minimum = 0.217 (at node 3)
	maximum = 0.228083 (at node 1)
Accepted packet rate average = 0.223907
	minimum = 0.216417 (at node 1)
	maximum = 0.227833 (at node 3)
Injected flit rate average = 0.22413
	minimum = 0.217 (at node 3)
	maximum = 0.228083 (at node 1)
Accepted flit rate average= 0.223907
	minimum = 0.216417 (at node 1)
	maximum = 0.227833 (at node 3)
Injected packet length average = 1
Accepted packet length average = 1
Total in-flight flits = 39 (39 measured)
====== Peak Queue Occupancy Statistics (Absolute Max) ======
  Overall Max VC Occupancy = 1
  Overall Max Buffer Occupancy = 2
latency change    = 0.00570411
throughput change = 0.117029
Class 0:
Packet latency average = 14.8386
	minimum = 11
	maximum = 23
	95th percentile = 19.5
	99th percentile = 20.5
Network latency average = 14.8386
	minimum = 11
	maximum = 23
	95th percentile = 19.5
	99th percentile = 20.5
Slowest packet = 27750
Flit latency average = 14.8385
	minimum = 11
	maximum = 23
	95th percentile = 19.5
	99th percentile = 20.5
Slowest flit = 27750
Fragmentation average = 0
	minimum = 0
	maximum = 0
Injected packet rate average = 0.249719
	minimum = 0.243733 (at node 3)
	maximum = 0.2546 (at node 6)
Accepted packet rate average = 0.249481
	minimum = 0.243533 (at node 1)
	maximum = 0.2542 (at node 2)
Injected flit rate average = 0.249719
	minimum = 0.243733 (at node 3)
	maximum = 0.2546 (at node 6)
Accepted flit rate average= 0.249481
	minimum = 0.243533 (at node 1)
	maximum = 0.2542 (at node 2)
Injected packet length average = 1
Accepted packet length average = 1
Total in-flight flits = 47 (47 measured)
====== Peak Queue Occupancy Statistics (Absolute Max) ======
  Overall Max VC Occupancy = 1
  Overall Max Buffer Occupancy = 2
latency change    = 0.00597267
throughput change = 0.102509
Class 0:
Packet latency average = 14.9277
	minimum = 11
	maximum = 23
	95th percentile = 19.5
	99th percentile = 20.5
Network latency average = 14.9277
	minimum = 11
	maximum = 23
	95th percentile = 19.5
	99th percentile = 20.5
Slowest packet = 27750
Flit latency average = 14.9275
	minimum = 11
	maximum = 23
	95th percentile = 19.5
	99th percentile = 20.5
Slowest flit = 27750
Fragmentation average = 0
	minimum = 0
	maximum = 0
Injected packet rate average = 0.274809
	minimum = 0.269556 (at node 7)
	maximum = 0.280944 (at node 6)
Accepted packet rate average = 0.274593
	minimum = 0.269278 (at node 5)
	maximum = 0.280611 (at node 2)
Injected flit rate average = 0.274809
	minimum = 0.269556 (at node 7)
	maximum = 0.280944 (at node 6)
Accepted flit rate average= 0.274593
	minimum = 0.269278 (at node 5)
	maximum = 0.280611 (at node 2)
Injected packet length average = 1
Accepted packet length average = 1
Total in-flight flits = 50 (50 measured)
====== Peak Queue Occupancy Statistics (Absolute Max) ======
  Overall Max VC Occupancy = 1
  Overall Max Buffer Occupancy = 2
latency change    = 0.00596488
throughput change = 0.0914486
Class 0:
Packet latency average = 15.0277
	minimum = 11
	maximum = 24
	95th percentile = 19.5
	99th percentile = 21.5
Network latency average = 15.0277
	minimum = 11
	maximum = 24
	95th percentile = 19.5
	99th percentile = 21.5
Slowest packet = 52378
Flit latency average = 15.0276
	minimum = 11
	maximum = 24
	95th percentile = 19.5
	99th percentile = 21.5
Slowest flit = 52378
Fragmentation average = 0
	minimum = 0
	maximum = 0
Injected packet rate average = 0.300418
	minimum = 0.295095 (at node 7)
	maximum = 0.305714 (at node 6)
Accepted packet rate average = 0.300159
	minimum = 0.294905 (at node 5)
	maximum = 0.305429 (at node 2)
Injected flit rate average = 0.300418
	minimum = 0.295095 (at node 7)
	maximum = 0.305714 (at node 6)
Accepted flit rate average= 0.300159
	minimum = 0.294905 (at node 5)
	maximum = 0.305429 (at node 2)
Injected packet length average = 1
Accepted packet length average = 1
Total in-flight flits = 64 (64 measured)
====== Peak Queue Occupancy Statistics (Absolute Max) ======
  Overall Max VC Occupancy = 1
  Overall Max Buffer Occupancy = 2
latency change    = 0.0066572
throughput change = 0.0851754
Class 0:
Packet latency average = 15.1243
	minimum = 11
	maximum = 25
	95th percentile = 20.5
	99th percentile = 21.5
Network latency average = 15.1243
	minimum = 11
	maximum = 25
	95th percentile = 20.5
	99th percentile = 21.5
Slowest packet = 72248
Flit latency average = 15.1242
	minimum = 11
	maximum = 25
	95th percentile = 20.5
	99th percentile = 21.5
Slowest flit = 72248
Fragmentation average = 0
	minimum = 0
	maximum = 0
Injected packet rate average = 0.325537
	minimum = 0.3215 (at node 3)
	maximum = 0.329917 (at node 6)
Accepted packet rate average = 0.325329
	minimum = 0.32125 (at node 1)
	maximum = 0.32975 (at node 2)
Injected flit rate average = 0.325537
	minimum = 0.3215 (at node 3)
	maximum = 0.329917 (at node 6)
Accepted flit rate average= 0.325329
	minimum = 0.32125 (at node 1)
	maximum = 0.32975 (at node 2)
Injected packet length average = 1
Accepted packet length average = 1
Total in-flight flits = 60 (60 measured)
====== Peak Queue Occupancy Statistics (Absolute Max) ======
  Overall Max VC Occupancy = 1
  Overall Max Buffer Occupancy = 2
latency change    = 0.00638538
throughput change = 0.0773678
Class 0:
Packet latency average = 15.2267
	minimum = 11
	maximum = 26
	95th percentile = 20.5
	99th percentile = 21.5
Network latency average = 15.2267
	minimum = 11
	maximum = 26
	95th percentile = 20.5
	99th percentile = 21.5
Slowest packet = 78900
Flit latency average = 15.2266
	minimum = 11
	maximum = 26
	95th percentile = 20.5
	99th percentile = 21.5
Slowest flit = 78900
Fragmentation average = 0
	minimum = 0
	maximum = 0
Injected packet rate average = 0.349774
	minimum = 0.345852 (at node 3)
	maximum = 0.355296 (at node 6)
Accepted packet rate average = 0.349543
	minimum = 0.345741 (at node 1)
	maximum = 0.354852 (at node 2)
Injected flit rate average = 0.349774
	minimum = 0.345852 (at node 3)
	maximum = 0.355296 (at node 6)
Accepted flit rate average= 0.349543
	minimum = 0.345741 (at node 1)
	maximum = 0.354852 (at node 2)
Injected packet length average = 1
Accepted packet length average = 1
Total in-flight flits = 71 (71 measured)
====== Peak Queue Occupancy Statistics (Absolute Max) ======
  Overall Max VC Occupancy = 1
  Overall Max Buffer Occupancy = 2
latency change    = 0.00672499
throughput change = 0.0692747
Class 0:
Packet latency average = 15.3451
	minimum = 11
	maximum = 26
	95th percentile = 20.5
	99th percentile = 21.5
Network latency average = 15.3451
	minimum = 11
	maximum = 26
	95th percentile = 20.5
	99th percentile = 21.5
Slowest packet = 78900
Flit latency average = 15.3449
	minimum = 11
	maximum = 26
	95th percentile = 20.5
	99th percentile = 21.5
Slowest flit = 78900
Fragmentation average = 0
	minimum = 0
	maximum = 0
Injected packet rate average = 0.37487
	minimum = 0.369433 (at node 3)
	maximum = 0.3801 (at node 6)
Accepted packet rate average = 0.374581
	minimum = 0.369167 (at node 1)
	maximum = 0.379867 (at node 2)
Injected flit rate average = 0.37487
	minimum = 0.369433 (at node 3)
	maximum = 0.3801 (at node 6)
Accepted flit rate average= 0.374581
	minimum = 0.369167 (at node 1)
	maximum = 0.379867 (at node 2)
Injected packet length average = 1
Accepted packet length average = 1
Total in-flight flits = 93 (93 measured)
====== Peak Queue Occupancy Statistics (Absolute Max) ======
  Overall Max VC Occupancy = 1
  Overall Max Buffer Occupancy = 3
latency change    = 0.00771487
throughput change = 0.0668433
Class 0:
Packet latency average = 15.4716
	minimum = 11
	maximum = 26
	95th percentile = 20.5
	99th percentile = 22.5
Network latency average = 15.4716
	minimum = 11
	maximum = 26
	95th percentile = 20.5
	99th percentile = 22.5
Slowest packet = 78900
Flit latency average = 15.4715
	minimum = 11
	maximum = 26
	95th percentile = 20.5
	99th percentile = 22.5
Slowest flit = 78900
Fragmentation average = 0
	minimum = 0
	maximum = 0
Injected packet rate average = 0.400192
	minimum = 0.394424 (at node 3)
	maximum = 0.404576 (at node 6)
Accepted packet rate average = 0.399909
	minimum = 0.394152 (at node 1)
	maximum = 0.404212 (at node 2)
Injected flit rate average = 0.400192
	minimum = 0.394424 (at node 3)
	maximum = 0.404576 (at node 6)
Accepted flit rate average= 0.399909
	minimum = 0.394152 (at node 1)
	maximum = 0.404212 (at node 2)
Injected packet length average = 1
Accepted packet length average = 1
Total in-flight flits = 99 (99 measured)
====== Peak Queue Occupancy Statistics (Absolute Max) ======
  Overall Max VC Occupancy = 1
  Overall Max Buffer Occupancy = 3
latency change    = 0.00817935
throughput change = 0.0633334
Class 0:
Packet latency average = 15.6011
	minimum = 11
	maximum = 26
	95th percentile = 21.5
	99th percentile = 22.5
Network latency average = 15.6011
	minimum = 11
	maximum = 26
	95th percentile = 21.5
	99th percentile = 22.5
Slowest packet = 78900
Flit latency average = 15.601
	minimum = 11
	maximum = 26
	95th percentile = 21.5
	99th percentile = 22.5
Slowest flit = 78900
Fragmentation average = 0
	minimum = 0
	maximum = 0
Injected packet rate average = 0.424985
	minimum = 0.420222 (at node 3)
	maximum = 0.42925 (at node 6)
Accepted packet rate average = 0.424725
	minimum = 0.420028 (at node 1)
	maximum = 0.428944 (at node 2)
Injected flit rate average = 0.424985
	minimum = 0.420222 (at node 3)
	maximum = 0.42925 (at node 6)
Accepted flit rate average= 0.424725
	minimum = 0.420028 (at node 1)
	maximum = 0.428944 (at node 2)
Injected packet length average = 1
Accepted packet length average = 1
Total in-flight flits = 99 (99 measured)
====== Peak Queue Occupancy Statistics (Absolute Max) ======
  Overall Max VC Occupancy = 1
  Overall Max Buffer Occupancy = 3
latency change    = 0.00830263
throughput change = 0.0584289
Class 0:
Packet latency average = 15.7587
	minimum = 11
	maximum = 27
	95th percentile = 21.5
	99th percentile = 22.5
Network latency average = 15.7587
	minimum = 11
	maximum = 27
	95th percentile = 21.5
	99th percentile = 22.5
Slowest packet = 146796
Flit latency average = 15.7586
	minimum = 11
	maximum = 27
	95th percentile = 21.5
	99th percentile = 22.5
Slowest flit = 146796
Fragmentation average = 0
	minimum = 0
	maximum = 0
Injected packet rate average = 0.45014
	minimum = 0.444974 (at node 3)
	maximum = 0.454154 (at node 6)
Accepted packet rate average = 0.449858
	minimum = 0.444718 (at node 1)
	maximum = 0.453769 (at node 2)
Injected flit rate average = 0.45014
	minimum = 0.444974 (at node 3)
	maximum = 0.454154 (at node 6)
Accepted flit rate average= 0.449858
	minimum = 0.444718 (at node 1)
	maximum = 0.453769 (at node 2)
Injected packet length average = 1
Accepted packet length average = 1
Total in-flight flits = 114 (114 measured)
====== Peak Queue Occupancy Statistics (Absolute Max) ======
  Overall Max VC Occupancy = 1
  Overall Max Buffer Occupancy = 3
latency change    = 0.0100015
throughput change = 0.0558671
Class 0:
Packet latency average = 15.9771
	minimum = 11
	maximum = 29
	95th percentile = 22.5
	99th percentile = 23.5
Network latency average = 15.9771
	minimum = 11
	maximum = 29
	95th percentile = 22.5
	99th percentile = 23.5
Slowest packet = 167527
Flit latency average = 15.977
	minimum = 11
	maximum = 29
	95th percentile = 21.5
	99th percentile = 23.5
Slowest flit = 167527
Fragmentation average = 0
	minimum = 0
	maximum = 0
Injected packet rate average = 0.475026
	minimum = 0.469524 (at node 3)
	maximum = 0.477833 (at node 6)
Accepted packet rate average = 0.47473
	minimum = 0.469286 (at node 1)
	maximum = 0.477476 (at node 2)
Injected flit rate average = 0.475026
	minimum = 0.469524 (at node 3)
	maximum = 0.477833 (at node 6)
Accepted flit rate average= 0.47473
	minimum = 0.469286 (at node 1)
	maximum = 0.477476 (at node 2)
Injected packet length average = 1
Accepted packet length average = 1
Total in-flight flits = 127 (127 measured)
====== Peak Queue Occupancy Statistics (Absolute Max) ======
  Overall Max VC Occupancy = 1
  Overall Max Buffer Occupancy = 3
latency change    = 0.0136676
throughput change = 0.0523932
Class 0:
Packet latency average = 16.1537
	minimum = 11
	maximum = 29
	95th percentile = 22.5
	99th percentile = 24.5
Network latency average = 16.1537
	minimum = 11
	maximum = 29
	95th percentile = 22.5
	99th percentile = 24.5
Slowest packet = 167527
Flit latency average = 16.1536
	minimum = 11
	maximum = 29
	95th percentile = 22.5
	99th percentile = 24.5
Slowest flit = 167527
Fragmentation average = 0
	minimum = 0
	maximum = 0
Injected packet rate average = 0.496822
	minimum = 0.491111 (at node 3)
	maximum = 0.500067 (at node 6)
Accepted packet rate average = 0.496551
	minimum = 0.490844 (at node 1)
	maximum = 0.499711 (at node 2)
Injected flit rate average = 0.496822
	minimum = 0.491111 (at node 3)
	maximum = 0.500067 (at node 6)
Accepted flit rate average= 0.496551
	minimum = 0.490844 (at node 1)
	maximum = 0.499711 (at node 2)
Injected packet length average = 1
Accepted packet length average = 1
Total in-flight flits = 125 (125 measured)
====== Peak Queue Occupancy Statistics (Absolute Max) ======
  Overall Max VC Occupancy = 1
  Overall Max Buffer Occupancy = 3
latency change    = 0.0109295
throughput change = 0.0439441
Class 0:
Packet latency average = 16.2833
	minimum = 11
	maximum = 29
	95th percentile = 22.5
	99th percentile = 24.5
Network latency average = 16.2833
	minimum = 11
	maximum = 29
	95th percentile = 22.5
	99th percentile = 24.5
Slowest packet = 167527
Flit latency average = 16.2832
	minimum = 11
	maximum = 29
	95th percentile = 22.5
	99th percentile = 24.5
Slowest flit = 167527
Fragmentation average = 0
	minimum = 0
	maximum = 0
Injected packet rate average = 0.515583
	minimum = 0.510729 (at node 3)
	maximum = 0.517875 (at node 6)
Accepted packet rate average = 0.51535
	minimum = 0.510458 (at node 1)
	maximum = 0.517625 (at node 2)
Injected flit rate average = 0.515583
	minimum = 0.510729 (at node 3)
	maximum = 0.517875 (at node 6)
Accepted flit rate average= 0.51535
	minimum = 0.510458 (at node 1)
	maximum = 0.517625 (at node 2)
Injected packet length average = 1
Accepted packet length average = 1
Total in-flight flits = 116 (116 measured)
====== Peak Queue Occupancy Statistics (Absolute Max) ======
  Overall Max VC Occupancy = 1
  Overall Max Buffer Occupancy = 3
latency change    = 0.0079593
throughput change = 0.036478
Class 0:
Packet latency average = 16.3993
	minimum = 11
	maximum = 29
	95th percentile = 22.5
	99th percentile = 24.5
Network latency average = 16.3993
	minimum = 11
	maximum = 29
	95th percentile = 22.5
	99th percentile = 24.5
Slowest packet = 167527
Flit latency average = 16.3992
	minimum = 11
	maximum = 29
	95th percentile = 22.5
	99th percentile = 24.5
Slowest flit = 167527
Fragmentation average = 0
	minimum = 0
	maximum = 0
Injected packet rate average = 0.532281
	minimum = 0.528255 (at node 3)
	maximum = 0.535176 (at node 6)
Accepted packet rate average = 0.532048
	minimum = 0.52802 (at node 1)
	maximum = 0.534902 (at node 2)
Injected flit rate average = 0.532281
	minimum = 0.528255 (at node 3)
	maximum = 0.535176 (at node 6)
Accepted flit rate average= 0.532048
	minimum = 0.52802 (at node 1)
	maximum = 0.534902 (at node 2)
Injected packet length average = 1
Accepted packet length average = 1
Total in-flight flits = 122 (122 measured)
====== Peak Queue Occupancy Statistics (Absolute Max) ======
  Overall Max VC Occupancy = 1
  Overall Max Buffer Occupancy = 3
latency change    = 0.00707414
throughput change = 0.0313851
Draining all recorded packets ...
Draining remaining packets ...
Time taken is 57047 cycles
====== Overall Traffic Statistics ======
====== Traffic class 0 ======
Packet latency average = 16.4004 (1 samples)
	minimum = 11 (1 samples)
	maximum = 29 (1 samples)
Network latency average = 16.4004 (1 samples)
	minimum = 11 (1 samples)
	maximum = 29 (1 samples)
Flit latency average = 16.4009 (1 samples)
	minimum = 11 (1 samples)
	maximum = 29 (1 samples)
Fragmentation average = 0 (1 samples)
	minimum = 0 (1 samples)
	maximum = 0 (1 samples)
Injected packet rate average = 0.532281 (1 samples)
	minimum = 0.528255 (1 samples)
	maximum = 0.535176 (1 samples)
Accepted packet rate average = 0.532048 (1 samples)
	minimum = 0.52802 (1 samples)
	maximum = 0.534902 (1 samples)
Injected flit rate average = 0.532281 (1 samples)
	minimum = 0.528255 (1 samples)
	maximum = 0.535176 (1 samples)
Accepted flit rate average = 0.532048 (1 samples)
	minimum = 0.52802 (1 samples)
	maximum = 0.534902 (1 samples)
Injected packet size average = 1 (1 samples)
Accepted packet size average = 1 (1 samples)
Hops average = 4.11246 (1 samples)
Total run time 9.03462

