BEGIN Configuration File: D:\noc_huawei\noc\booksim2-noc_speedup_study\booksim2-noc_speedup_study\tests\data\results\fixed_perm_growth_models_perm_4_3_6_1_8_7_2_5_0_peak_0p8_current_defaults\tmp_configs\ordered_fill_racke_tree_s2202.config
num_vcs     = 48;
vc_buf_size = 16;
wait_for_tail_credit = 1;

vc_allocator = islip;
sw_allocator = islip;
alloc_iters  = 16;

credit_delay   = 2;
routing_delay  = 0;
vc_alloc_delay = 1;
sw_alloc_delay = 1;
st_final_delay = 1;

input_speedup     = 1;
output_speedup    = 1;
internal_speedup  = 2.0;

sim_type = latency;
latency_thres  = 100000.0;
sim_count      = 1;
queue_sample_period_cycles = 0;

topology = mesh;
k  = 3;
n  = 2;

hybrid_transition_mode = linear_prob;
hybrid_xy_low_threshold = 0.35;
hybrid_racke_high_threshold = 0.65;
hybrid_buffer_soft_threshold = 0.50;
hybrid_buffer_hard_threshold = 0.85;
hybrid_buffer_release_threshold = 0.35;
hybrid_rate_soft_threshold = 0.55;
hybrid_rate_hard_threshold = 0.90;
hybrid_rate_weight = 0.25;
hybrid_congestion_alpha = 0.25;
hybrid_racke_increase_step = 0.25;
hybrid_racke_decrease_step = 0.10;
hybrid_epoch_cycles = 200;
hybrid_hold_cycles = 600;
hybrid_enable_midflight_override = 1;
hybrid_feedback_delay_per_hop = 1;
hybrid_flow_increase_step = 0.20;
hybrid_flow_decrease_step = 0.08;
hybrid_flow_hard_threshold = 0.95;

packet_size = 1;

scheduled_injection_rates = {0.10,0.20,0.30};
scheduled_phase_cycles = {1000,1000,1000};
scheduled_default_phase_cycles = 1000;

custom_perm_array = {4,3,6,1,8,7,2,5,0};
warmup_periods = 2;
seed = 2202;
hybrid_flow_hotspot_alpha = 0.85;
injection_process = ordered_fill;
perm_seed = 2202;
ordered_injection_phase_cycles = {3000,3000,3000,3000,3000,3000,3000,3000,3000,3000,3000,3000,3000,3000,3000,3000,3000,3000};
routing_function = racke_tree;
injection_rate = 0.8;
max_samples = 26;
ordered_injection_source_order = {4,0,7,2,8,1,5,3,6};
hybrid_flow_hotspot_threshold = 1.1;
ordered_injection_flow_peak_rate = 0.8;
ordered_injection_coefficients = {0.0625,0.125,0.1875,0.25,0.3125,0.375,0.4375,0.5,0.5625,0.625,0.6875,0.75,0.8125,0.875,0.9375,1.0,1.0,1.0};
hybrid_stats_window_cycles = 3000;
traffic = custom_perm;
sample_period = 3000;

END Configuration File: D:\noc_huawei\noc\booksim2-noc_speedup_study\booksim2-noc_speedup_study\tests\data\results\fixed_perm_growth_models_perm_4_3_6_1_8_7_2_5_0_peak_0p8_current_defaults\tmp_configs\ordered_fill_racke_tree_s2202.config
Class 0:
Packet latency average = 13.2676
	minimum = 11
	maximum = 19
	95th percentile = 18.5
	99th percentile = 19.5
Network latency average = 13.2676
	minimum = 11
	maximum = 19
	95th percentile = 18.5
	99th percentile = 19.5
Slowest packet = 25
Flit latency average = 13.2676
	minimum = 11
	maximum = 19
	95th percentile = 18.5
	99th percentile = 19.5
Slowest flit = 25
Fragmentation average = 0
	minimum = 0
	maximum = 0
Injected packet rate average = 0.0497778
	minimum = 0 (at node 0)
	maximum = 0.448 (at node 4)
Accepted packet rate average = 0.0495556
	minimum = 0 (at node 0)
	maximum = 0.446 (at node 8)
Injected flit rate average = 0.0497778
	minimum = 0 (at node 0)
	maximum = 0.448 (at node 4)
Accepted flit rate average= 0.0495556
	minimum = 0 (at node 0)
	maximum = 0.446 (at node 8)
Injected packet length average = 1
Accepted packet length average = 1
Total in-flight flits = 6 (0 measured)
====== Peak Queue Occupancy Statistics (Absolute Max) ======
  Overall Max VC Occupancy = 1
  Overall Max Buffer Occupancy = 2
latency change    = 1
throughput change = 1
Class 0:
Packet latency average = 13.2385
	minimum = 11
	maximum = 20
	95th percentile = 18.5
	99th percentile = 19.5
Network latency average = 13.2385
	minimum = 11
	maximum = 20
	95th percentile = 18.5
	99th percentile = 19.5
Slowest packet = 2372
Flit latency average = 13.2385
	minimum = 11
	maximum = 20
	95th percentile = 18.5
	99th percentile = 19.5
Slowest flit = 2372
Fragmentation average = 0
	minimum = 0
	maximum = 0
Injected packet rate average = 0.073963
	minimum = 0 (at node 1)
	maximum = 0.619667 (at node 4)
Accepted packet rate average = 0.0737593
	minimum = 0 (at node 0)
	maximum = 0.618 (at node 8)
Injected flit rate average = 0.073963
	minimum = 0 (at node 1)
	maximum = 0.619667 (at node 4)
Accepted flit rate average= 0.0737593
	minimum = 0 (at node 0)
	maximum = 0.618 (at node 8)
Injected packet length average = 1
Accepted packet length average = 1
Total in-flight flits = 11 (0 measured)
====== Peak Queue Occupancy Statistics (Absolute Max) ======
  Overall Max VC Occupancy = 1
  Overall Max Buffer Occupancy = 2
latency change    = 0.00219434
throughput change = 0.328145
Warmed up ...Time used is 6000 cycles
Class 0:
Packet latency average = 13.286
	minimum = 11
	maximum = 20
	95th percentile = 18.5
	99th percentile = 19.5
Network latency average = 13.286
	minimum = 11
	maximum = 20
	95th percentile = 18.5
	99th percentile = 19.5
Slowest packet = 4009
Flit latency average = 13.2865
	minimum = 11
	maximum = 20
	95th percentile = 18.5
	99th percentile = 19.5
Slowest flit = 4009
Fragmentation average = 0
	minimum = 0
	maximum = 0
Injected packet rate average = 0.149148
	minimum = 0 (at node 1)
	maximum = 0.796 (at node 4)
Accepted packet rate average = 0.148926
	minimum = 0 (at node 0)
	maximum = 0.796 (at node 8)
Injected flit rate average = 0.149148
	minimum = 0 (at node 1)
	maximum = 0.796 (at node 4)
Accepted flit rate average= 0.148926
	minimum = 0 (at node 0)
	maximum = 0.796 (at node 8)
Injected packet length average = 1
Accepted packet length average = 1
Total in-flight flits = 17 (17 measured)
====== Peak Queue Occupancy Statistics (Absolute Max) ======
  Overall Max VC Occupancy = 1
  Overall Max Buffer Occupancy = 2
latency change    = 0.00357678
throughput change = 0.504725
Class 0:
Packet latency average = 13.3392
	minimum = 11
	maximum = 20
	95th percentile = 18.5
	99th percentile = 19.5
Network latency average = 13.3392
	minimum = 11
	maximum = 20
	95th percentile = 18.5
	99th percentile = 19.5
Slowest packet = 4009
Flit latency average = 13.3393
	minimum = 11
	maximum = 20
	95th percentile = 18.5
	99th percentile = 19.5
Slowest flit = 4009
Fragmentation average = 0
	minimum = 0
	maximum = 0
Injected packet rate average = 0.175667
	minimum = 0 (at node 1)
	maximum = 0.7995 (at node 4)
Accepted packet rate average = 0.175407
	minimum = 0 (at node 0)
	maximum = 0.799167 (at node 8)
Injected flit rate average = 0.175667
	minimum = 0 (at node 1)
	maximum = 0.7995 (at node 4)
Accepted flit rate average= 0.175407
	minimum = 0 (at node 0)
	maximum = 0.799167 (at node 8)
Injected packet length average = 1
Accepted packet length average = 1
Total in-flight flits = 25 (25 measured)
====== Peak Queue Occupancy Statistics (Absolute Max) ======
  Overall Max VC Occupancy = 1
  Overall Max Buffer Occupancy = 2
latency change    = 0.00398428
throughput change = 0.150971
Class 0:
Packet latency average = 13.4586
	minimum = 11
	maximum = 21
	95th percentile = 18.5
	99th percentile = 19.5
Network latency average = 13.4586
	minimum = 11
	maximum = 21
	95th percentile = 18.5
	99th percentile = 19.5
Slowest packet = 15060
Flit latency average = 13.4586
	minimum = 11
	maximum = 21
	95th percentile = 18.5
	99th percentile = 19.5
Slowest flit = 15060
Fragmentation average = 0
	minimum = 0
	maximum = 0
Injected packet rate average = 0.200531
	minimum = 0 (at node 1)
	maximum = 0.800444 (at node 4)
Accepted packet rate average = 0.200333
	minimum = 0 (at node 0)
	maximum = 0.800667 (at node 8)
Injected flit rate average = 0.200531
	minimum = 0 (at node 1)
	maximum = 0.800444 (at node 4)
Accepted flit rate average= 0.200333
	minimum = 0 (at node 0)
	maximum = 0.800667 (at node 8)
Injected packet length average = 1
Accepted packet length average = 1
Total in-flight flits = 27 (27 measured)
====== Peak Queue Occupancy Statistics (Absolute Max) ======
  Overall Max VC Occupancy = 1
  Overall Max Buffer Occupancy = 2
latency change    = 0.00887001
throughput change = 0.124422
Class 0:
Packet latency average = 13.6991
	minimum = 11
	maximum = 22
	95th percentile = 18.5
	99th percentile = 19.5
Network latency average = 13.6991
	minimum = 11
	maximum = 22
	95th percentile = 18.5
	99th percentile = 19.5
Slowest packet = 24036
Flit latency average = 13.699
	minimum = 11
	maximum = 22
	95th percentile = 18.5
	99th percentile = 19.5
Slowest flit = 24036
Fragmentation average = 0
	minimum = 0
	maximum = 0
Injected packet rate average = 0.225102
	minimum = 0 (at node 1)
	maximum = 0.79775 (at node 4)
Accepted packet rate average = 0.224861
	minimum = 0 (at node 0)
	maximum = 0.797583 (at node 8)
Injected flit rate average = 0.225102
	minimum = 0 (at node 1)
	maximum = 0.79775 (at node 4)
Accepted flit rate average= 0.224861
	minimum = 0 (at node 0)
	maximum = 0.797583 (at node 8)
Injected packet length average = 1
Accepted packet length average = 1
Total in-flight flits = 37 (37 measured)
====== Peak Queue Occupancy Statistics (Absolute Max) ======
  Overall Max VC Occupancy = 1
  Overall Max Buffer Occupancy = 2
latency change    = 0.017559
throughput change = 0.10908
Class 0:
Packet latency average = 14.0232
	minimum = 11
	maximum = 23
	95th percentile = 19.5
	99th percentile = 20.5
Network latency average = 14.0232
	minimum = 11
	maximum = 23
	95th percentile = 19.5
	99th percentile = 20.5
Slowest packet = 28558
Flit latency average = 14.0231
	minimum = 11
	maximum = 23
	95th percentile = 19.5
	99th percentile = 20.5
Slowest flit = 28558
Fragmentation average = 0
	minimum = 0
	maximum = 0
Injected packet rate average = 0.249844
	minimum = 0 (at node 1)
	maximum = 0.798933 (at node 4)
Accepted packet rate average = 0.24957
	minimum = 0 (at node 0)
	maximum = 0.798933 (at node 8)
Injected flit rate average = 0.249844
	minimum = 0 (at node 1)
	maximum = 0.798933 (at node 4)
Accepted flit rate average= 0.24957
	minimum = 0 (at node 0)
	maximum = 0.798933 (at node 8)
Injected packet length average = 1
Accepted packet length average = 1
Total in-flight flits = 48 (48 measured)
====== Peak Queue Occupancy Statistics (Absolute Max) ======
  Overall Max VC Occupancy = 1
  Overall Max Buffer Occupancy = 2
latency change    = 0.0231149
throughput change = 0.0990072
Class 0:
Packet latency average = 14.3417
	minimum = 11
	maximum = 24
	95th percentile = 19.5
	99th percentile = 20.5
Network latency average = 14.3417
	minimum = 11
	maximum = 24
	95th percentile = 19.5
	99th percentile = 20.5
Slowest packet = 41913
Flit latency average = 14.3415
	minimum = 11
	maximum = 24
	95th percentile = 19.5
	99th percentile = 20.5
Slowest flit = 41913
Fragmentation average = 0
	minimum = 0
	maximum = 0
Injected packet rate average = 0.274648
	minimum = 0 (at node 1)
	maximum = 0.799222 (at node 4)
Accepted packet rate average = 0.274377
	minimum = 0 (at node 1)
	maximum = 0.799111 (at node 8)
Injected flit rate average = 0.274648
	minimum = 0 (at node 1)
	maximum = 0.799222 (at node 4)
Accepted flit rate average= 0.274377
	minimum = 0 (at node 1)
	maximum = 0.799111 (at node 8)
Injected packet length average = 1
Accepted packet length average = 1
Total in-flight flits = 55 (55 measured)
====== Peak Queue Occupancy Statistics (Absolute Max) ======
  Overall Max VC Occupancy = 1
  Overall Max Buffer Occupancy = 2
latency change    = 0.0222039
throughput change = 0.0904092
Class 0:
Packet latency average = 14.6453
	minimum = 11
	maximum = 25
	95th percentile = 19.5
	99th percentile = 20.5
Network latency average = 14.6453
	minimum = 11
	maximum = 25
	95th percentile = 19.5
	99th percentile = 20.5
Slowest packet = 51554
Flit latency average = 14.6451
	minimum = 11
	maximum = 25
	95th percentile = 19.5
	99th percentile = 20.5
Slowest flit = 51554
Fragmentation average = 0
	minimum = 0
	maximum = 0
Injected packet rate average = 0.299799
	minimum = 0 (at node 3)
	maximum = 0.799143 (at node 4)
Accepted packet rate average = 0.299492
	minimum = 0 (at node 1)
	maximum = 0.798952 (at node 8)
Injected flit rate average = 0.299799
	minimum = 0 (at node 3)
	maximum = 0.799143 (at node 4)
Accepted flit rate average= 0.299492
	minimum = 0 (at node 1)
	maximum = 0.798952 (at node 8)
Injected packet length average = 1
Accepted packet length average = 1
Total in-flight flits = 69 (69 measured)
====== Peak Queue Occupancy Statistics (Absolute Max) ======
  Overall Max VC Occupancy = 1
  Overall Max Buffer Occupancy = 2
latency change    = 0.0207339
throughput change = 0.0838604
Class 0:
Packet latency average = 14.8706
	minimum = 11
	maximum = 25
	95th percentile = 19.5
	99th percentile = 21.5
Network latency average = 14.8706
	minimum = 11
	maximum = 25
	95th percentile = 19.5
	99th percentile = 21.5
Slowest packet = 51554
Flit latency average = 14.8704
	minimum = 11
	maximum = 25
	95th percentile = 19.5
	99th percentile = 21.5
Slowest flit = 51554
Fragmentation average = 0
	minimum = 0
	maximum = 0
Injected packet rate average = 0.324398
	minimum = 0 (at node 3)
	maximum = 0.798708 (at node 4)
Accepted packet rate average = 0.324106
	minimum = 0 (at node 1)
	maximum = 0.79875 (at node 8)
Injected flit rate average = 0.324398
	minimum = 0 (at node 3)
	maximum = 0.798708 (at node 4)
Accepted flit rate average= 0.324106
	minimum = 0 (at node 1)
	maximum = 0.79875 (at node 8)
Injected packet length average = 1
Accepted packet length average = 1
Total in-flight flits = 74 (74 measured)
====== Peak Queue Occupancy Statistics (Absolute Max) ======
  Overall Max VC Occupancy = 1
  Overall Max Buffer Occupancy = 2
latency change    = 0.0151472
throughput change = 0.0759455
Class 0:
Packet latency average = 15.0685
	minimum = 11
	maximum = 26
	95th percentile = 20.5
	99th percentile = 21.5
Network latency average = 15.0685
	minimum = 11
	maximum = 26
	95th percentile = 20.5
	99th percentile = 21.5
Slowest packet = 75683
Flit latency average = 15.0683
	minimum = 11
	maximum = 26
	95th percentile = 20.5
	99th percentile = 21.5
Slowest flit = 75683
Fragmentation average = 0
	minimum = 0
	maximum = 0
Injected packet rate average = 0.349206
	minimum = 0 (at node 3)
	maximum = 0.798519 (at node 4)
Accepted packet rate average = 0.348926
	minimum = 0 (at node 1)
	maximum = 0.798481 (at node 8)
Injected flit rate average = 0.349206
	minimum = 0 (at node 3)
	maximum = 0.798519 (at node 4)
Accepted flit rate average= 0.348926
	minimum = 0 (at node 1)
	maximum = 0.798481 (at node 8)
Injected packet length average = 1
Accepted packet length average = 1
Total in-flight flits = 79 (79 measured)
====== Peak Queue Occupancy Statistics (Absolute Max) ======
  Overall Max VC Occupancy = 1
  Overall Max Buffer Occupancy = 3
latency change    = 0.0131359
throughput change = 0.071131
Class 0:
Packet latency average = 15.2471
	minimum = 11
	maximum = 28
	95th percentile = 20.5
	99th percentile = 22.5
Network latency average = 15.2471
	minimum = 11
	maximum = 28
	95th percentile = 20.5
	99th percentile = 22.5
Slowest packet = 95055
Flit latency average = 15.2469
	minimum = 11
	maximum = 28
	95th percentile = 20.5
	99th percentile = 22.5
Slowest flit = 95055
Fragmentation average = 0
	minimum = 0
	maximum = 0
Injected packet rate average = 0.374126
	minimum = 0 (at node 3)
	maximum = 0.798333 (at node 4)
Accepted packet rate average = 0.3739
	minimum = 0 (at node 1)
	maximum = 0.7984 (at node 8)
Injected flit rate average = 0.374126
	minimum = 0 (at node 3)
	maximum = 0.798333 (at node 4)
Accepted flit rate average= 0.3739
	minimum = 0 (at node 1)
	maximum = 0.7984 (at node 8)
Injected packet length average = 1
Accepted packet length average = 1
Total in-flight flits = 72 (72 measured)
====== Peak Queue Occupancy Statistics (Absolute Max) ======
  Overall Max VC Occupancy = 1
  Overall Max Buffer Occupancy = 3
latency change    = 0.0117137
throughput change = 0.0667935
Class 0:
Packet latency average = 15.4238
	minimum = 11
	maximum = 28
	95th percentile = 21.5
	99th percentile = 23.5
Network latency average = 15.4238
	minimum = 11
	maximum = 28
	95th percentile = 21.5
	99th percentile = 23.5
Slowest packet = 95055
Flit latency average = 15.4236
	minimum = 11
	maximum = 28
	95th percentile = 21.5
	99th percentile = 23.5
Slowest flit = 95055
Fragmentation average = 0
	minimum = 0
	maximum = 0
Injected packet rate average = 0.399535
	minimum = 0 (at node 6)
	maximum = 0.798758 (at node 4)
Accepted packet rate average = 0.399279
	minimum = 0 (at node 2)
	maximum = 0.798697 (at node 8)
Injected flit rate average = 0.399535
	minimum = 0 (at node 6)
	maximum = 0.798758 (at node 4)
Accepted flit rate average= 0.399279
	minimum = 0 (at node 2)
	maximum = 0.798697 (at node 8)
Injected packet length average = 1
Accepted packet length average = 1
Total in-flight flits = 87 (87 measured)
====== Peak Queue Occupancy Statistics (Absolute Max) ======
  Overall Max VC Occupancy = 1
  Overall Max Buffer Occupancy = 3
latency change    = 0.0114531
throughput change = 0.0635632
Class 0:
Packet latency average = 15.5569
	minimum = 11
	maximum = 29
	95th percentile = 21.5
	99th percentile = 23.5
Network latency average = 15.5569
	minimum = 11
	maximum = 29
	95th percentile = 21.5
	99th percentile = 23.5
Slowest packet = 133935
Flit latency average = 15.5567
	minimum = 11
	maximum = 29
	95th percentile = 21.5
	99th percentile = 23.5
Slowest flit = 133935
Fragmentation average = 0
	minimum = 0
	maximum = 0
Injected packet rate average = 0.42446
	minimum = 0 (at node 6)
	maximum = 0.798333 (at node 4)
Accepted packet rate average = 0.424173
	minimum = 0 (at node 2)
	maximum = 0.798333 (at node 8)
Injected flit rate average = 0.42446
	minimum = 0 (at node 6)
	maximum = 0.798333 (at node 4)
Accepted flit rate average= 0.424173
	minimum = 0 (at node 2)
	maximum = 0.798333 (at node 8)
Injected packet length average = 1
Accepted packet length average = 1
Total in-flight flits = 104 (104 measured)
====== Peak Queue Occupancy Statistics (Absolute Max) ======
  Overall Max VC Occupancy = 1
  Overall Max Buffer Occupancy = 3
latency change    = 0.00855508
throughput change = 0.0586869
Class 0:
Packet latency average = 15.7135
	minimum = 11
	maximum = 29
	95th percentile = 21.5
	99th percentile = 23.5
Network latency average = 15.7135
	minimum = 11
	maximum = 29
	95th percentile = 21.5
	99th percentile = 23.5
Slowest packet = 133935
Flit latency average = 15.7133
	minimum = 11
	maximum = 29
	95th percentile = 21.5
	99th percentile = 23.5
Slowest flit = 133935
Fragmentation average = 0
	minimum = 0
	maximum = 0
Injected packet rate average = 0.449393
	minimum = 0.0275128 (at node 6)
	maximum = 0.798 (at node 4)
Accepted packet rate average = 0.449137
	minimum = 0.0273846 (at node 2)
	maximum = 0.798 (at node 8)
Injected flit rate average = 0.449393
	minimum = 0.0275128 (at node 6)
	maximum = 0.798 (at node 4)
Accepted flit rate average= 0.449137
	minimum = 0.0273846 (at node 2)
	maximum = 0.798 (at node 8)
Injected packet length average = 1
Accepted packet length average = 1
Total in-flight flits = 101 (101 measured)
====== Peak Queue Occupancy Statistics (Absolute Max) ======
  Overall Max VC Occupancy = 1
  Overall Max Buffer Occupancy = 3
latency change    = 0.00996518
throughput change = 0.055582
Class 0:
Packet latency average = 15.9409
	minimum = 11
	maximum = 29
	95th percentile = 22.5
	99th percentile = 24.5
Network latency average = 15.9409
	minimum = 11
	maximum = 29
	95th percentile = 22.5
	99th percentile = 24.5
Slowest packet = 133935
Flit latency average = 15.9408
	minimum = 11
	maximum = 29
	95th percentile = 22.5
	99th percentile = 24.5
Slowest flit = 133935
Fragmentation average = 0
	minimum = 0
	maximum = 0
Injected packet rate average = 0.474429
	minimum = 0.0835238 (at node 6)
	maximum = 0.798214 (at node 4)
Accepted packet rate average = 0.474114
	minimum = 0.0830952 (at node 2)
	maximum = 0.798143 (at node 8)
Injected flit rate average = 0.474429
	minimum = 0.0835238 (at node 6)
	maximum = 0.798214 (at node 4)
Accepted flit rate average= 0.474114
	minimum = 0.0830952 (at node 2)
	maximum = 0.798143 (at node 8)
Injected packet length average = 1
Accepted packet length average = 1
Total in-flight flits = 130 (130 measured)
====== Peak Queue Occupancy Statistics (Absolute Max) ======
  Overall Max VC Occupancy = 1
  Overall Max Buffer Occupancy = 3
latency change    = 0.0142684
throughput change = 0.0526815
Class 0:
Packet latency average = 16.1159
	minimum = 11
	maximum = 29
	95th percentile = 22.5
	99th percentile = 24.5
Network latency average = 16.1159
	minimum = 11
	maximum = 29
	95th percentile = 22.5
	99th percentile = 24.5
Slowest packet = 133935
Flit latency average = 16.1158
	minimum = 11
	maximum = 29
	95th percentile = 22.5
	99th percentile = 24.5
Slowest flit = 133935
Fragmentation average = 0
	minimum = 0
	maximum = 0
Injected packet rate average = 0.496136
	minimum = 0.131622 (at node 6)
	maximum = 0.797911 (at node 4)
Accepted packet rate average = 0.495857
	minimum = 0.131244 (at node 2)
	maximum = 0.797822 (at node 8)
Injected flit rate average = 0.496136
	minimum = 0.131622 (at node 6)
	maximum = 0.797911 (at node 4)
Accepted flit rate average= 0.495857
	minimum = 0.131244 (at node 2)
	maximum = 0.797822 (at node 8)
Injected packet length average = 1
Accepted packet length average = 1
Total in-flight flits = 124 (124 measured)
====== Peak Queue Occupancy Statistics (Absolute Max) ======
  Overall Max VC Occupancy = 1
  Overall Max Buffer Occupancy = 3
latency change    = 0.0108588
throughput change = 0.0438494
Class 0:
Packet latency average = 16.2526
	minimum = 11
	maximum = 29
	95th percentile = 22.5
	99th percentile = 24.5
Network latency average = 16.2526
	minimum = 11
	maximum = 29
	95th percentile = 22.5
	99th percentile = 24.5
Slowest packet = 133935
Flit latency average = 16.2524
	minimum = 11
	maximum = 29
	95th percentile = 22.5
	99th percentile = 24.5
Slowest flit = 133935
Fragmentation average = 0
	minimum = 0
	maximum = 0
Injected packet rate average = 0.514961
	minimum = 0.174146 (at node 6)
	maximum = 0.79775 (at node 4)
Accepted packet rate average = 0.514699
	minimum = 0.173875 (at node 2)
	maximum = 0.79775 (at node 8)
Injected flit rate average = 0.514961
	minimum = 0.174146 (at node 6)
	maximum = 0.79775 (at node 4)
Accepted flit rate average= 0.514699
	minimum = 0.173875 (at node 2)
	maximum = 0.79775 (at node 8)
Injected packet length average = 1
Accepted packet length average = 1
Total in-flight flits = 124 (124 measured)
====== Peak Queue Occupancy Statistics (Absolute Max) ======
  Overall Max VC Occupancy = 1
  Overall Max Buffer Occupancy = 3
latency change    = 0.00840847
throughput change = 0.0366084
Class 0:
Packet latency average = 16.3732
	minimum = 11
	maximum = 31
	95th percentile = 22.5
	99th percentile = 24.5
Network latency average = 16.3732
	minimum = 11
	maximum = 31
	95th percentile = 22.5
	99th percentile = 24.5
Slowest packet = 244185
Flit latency average = 16.373
	minimum = 11
	maximum = 31
	95th percentile = 22.5
	99th percentile = 24.5
Slowest flit = 244185
Fragmentation average = 0
	minimum = 0
	maximum = 0
Injected packet rate average = 0.531865
	minimum = 0.211373 (at node 6)
	maximum = 0.798039 (at node 4)
Accepted packet rate average = 0.531612
	minimum = 0.211 (at node 2)
	maximum = 0.797961 (at node 8)
Injected flit rate average = 0.531865
	minimum = 0.211373 (at node 6)
	maximum = 0.798039 (at node 4)
Accepted flit rate average= 0.531612
	minimum = 0.211 (at node 2)
	maximum = 0.797961 (at node 8)
Injected packet length average = 1
Accepted packet length average = 1
Total in-flight flits = 127 (127 measured)
====== Peak Queue Occupancy Statistics (Absolute Max) ======
  Overall Max VC Occupancy = 1
  Overall Max Buffer Occupancy = 3
latency change    = 0.00736622
throughput change = 0.0318148
Draining all recorded packets ...
Draining remaining packets ...
Time taken is 57047 cycles
====== Overall Traffic Statistics ======
====== Traffic class 0 ======
Packet latency average = 16.3742 (1 samples)
	minimum = 11 (1 samples)
	maximum = 31 (1 samples)
Network latency average = 16.3742 (1 samples)
	minimum = 11 (1 samples)
	maximum = 31 (1 samples)
Flit latency average = 16.3749 (1 samples)
	minimum = 11 (1 samples)
	maximum = 31 (1 samples)
Fragmentation average = 0 (1 samples)
	minimum = 0 (1 samples)
	maximum = 0 (1 samples)
Injected packet rate average = 0.531865 (1 samples)
	minimum = 0.211373 (1 samples)
	maximum = 0.798039 (1 samples)
Accepted packet rate average = 0.531612 (1 samples)
	minimum = 0.211 (1 samples)
	maximum = 0.797961 (1 samples)
Injected flit rate average = 0.531865 (1 samples)
	minimum = 0.211373 (1 samples)
	maximum = 0.798039 (1 samples)
Accepted flit rate average = 0.531612 (1 samples)
	minimum = 0.211 (1 samples)
	maximum = 0.797961 (1 samples)
Injected packet size average = 1 (1 samples)
Accepted packet size average = 1 (1 samples)
Hops average = 4.05038 (1 samples)
Total run time 8.79844

