BEGIN Configuration File: D:\noc_huawei\noc\booksim2-noc_speedup_study\booksim2-noc_speedup_study\tests\data\results\fixed_perm_growth_models_perm_4_3_6_1_8_7_2_5_0_peak_0p8_current_defaults\tmp_configs\ordered_fill_racke_tree_s2201.config
num_vcs     = 48;
vc_buf_size = 16;
wait_for_tail_credit = 1;

vc_allocator = islip;
sw_allocator = islip;
alloc_iters  = 16;

credit_delay   = 2;
routing_delay  = 0;
vc_alloc_delay = 1;
sw_alloc_delay = 1;
st_final_delay = 1;

input_speedup     = 1;
output_speedup    = 1;
internal_speedup  = 2.0;

sim_type = latency;
latency_thres  = 100000.0;
sim_count      = 1;
queue_sample_period_cycles = 0;

topology = mesh;
k  = 3;
n  = 2;

hybrid_transition_mode = linear_prob;
hybrid_xy_low_threshold = 0.35;
hybrid_racke_high_threshold = 0.65;
hybrid_buffer_soft_threshold = 0.50;
hybrid_buffer_hard_threshold = 0.85;
hybrid_buffer_release_threshold = 0.35;
hybrid_rate_soft_threshold = 0.55;
hybrid_rate_hard_threshold = 0.90;
hybrid_rate_weight = 0.25;
hybrid_congestion_alpha = 0.25;
hybrid_racke_increase_step = 0.25;
hybrid_racke_decrease_step = 0.10;
hybrid_epoch_cycles = 200;
hybrid_hold_cycles = 600;
hybrid_enable_midflight_override = 1;
hybrid_feedback_delay_per_hop = 1;
hybrid_flow_increase_step = 0.20;
hybrid_flow_decrease_step = 0.08;
hybrid_flow_hard_threshold = 0.95;

packet_size = 1;

scheduled_injection_rates = {0.10,0.20,0.30};
scheduled_phase_cycles = {1000,1000,1000};
scheduled_default_phase_cycles = 1000;

custom_perm_array = {4,3,6,1,8,7,2,5,0};
warmup_periods = 2;
seed = 2201;
hybrid_flow_hotspot_alpha = 0.85;
injection_process = ordered_fill;
perm_seed = 2201;
ordered_injection_phase_cycles = {3000,3000,3000,3000,3000,3000,3000,3000,3000,3000,3000,3000,3000,3000,3000,3000,3000,3000};
routing_function = racke_tree;
injection_rate = 0.8;
max_samples = 26;
ordered_injection_source_order = {4,0,7,2,8,1,5,3,6};
hybrid_flow_hotspot_threshold = 1.1;
ordered_injection_flow_peak_rate = 0.8;
ordered_injection_coefficients = {0.0625,0.125,0.1875,0.25,0.3125,0.375,0.4375,0.5,0.5625,0.625,0.6875,0.75,0.8125,0.875,0.9375,1.0,1.0,1.0};
hybrid_stats_window_cycles = 3000;
traffic = custom_perm;
sample_period = 3000;

END Configuration File: D:\noc_huawei\noc\booksim2-noc_speedup_study\booksim2-noc_speedup_study\tests\data\results\fixed_perm_growth_models_perm_4_3_6_1_8_7_2_5_0_peak_0p8_current_defaults\tmp_configs\ordered_fill_racke_tree_s2201.config
Class 0:
Packet latency average = 13.2587
	minimum = 11
	maximum = 19
	95th percentile = 18.5
	99th percentile = 19.5
Network latency average = 13.2587
	minimum = 11
	maximum = 19
	95th percentile = 18.5
	99th percentile = 19.5
Slowest packet = 43
Flit latency average = 13.2587
	minimum = 11
	maximum = 19
	95th percentile = 18.5
	99th percentile = 19.5
Slowest flit = 43
Fragmentation average = 0
	minimum = 0
	maximum = 0
Injected packet rate average = 0.0502222
	minimum = 0 (at node 0)
	maximum = 0.452 (at node 4)
Accepted packet rate average = 0.049963
	minimum = 0 (at node 0)
	maximum = 0.449667 (at node 8)
Injected flit rate average = 0.0502222
	minimum = 0 (at node 0)
	maximum = 0.452 (at node 4)
Accepted flit rate average= 0.049963
	minimum = 0 (at node 0)
	maximum = 0.449667 (at node 8)
Injected packet length average = 1
Accepted packet length average = 1
Total in-flight flits = 7 (0 measured)
====== Peak Queue Occupancy Statistics (Absolute Max) ======
  Overall Max VC Occupancy = 1
  Overall Max Buffer Occupancy = 2
latency change    = 1
throughput change = 1
Class 0:
Packet latency average = 13.2408
	minimum = 11
	maximum = 19
	95th percentile = 18.5
	99th percentile = 19.5
Network latency average = 13.2408
	minimum = 11
	maximum = 19
	95th percentile = 18.5
	99th percentile = 19.5
Slowest packet = 43
Flit latency average = 13.2408
	minimum = 11
	maximum = 19
	95th percentile = 18.5
	99th percentile = 19.5
Slowest flit = 43
Fragmentation average = 0
	minimum = 0
	maximum = 0
Injected packet rate average = 0.0746852
	minimum = 0 (at node 1)
	maximum = 0.622167 (at node 4)
Accepted packet rate average = 0.0744444
	minimum = 0 (at node 0)
	maximum = 0.620333 (at node 8)
Injected flit rate average = 0.0746852
	minimum = 0 (at node 1)
	maximum = 0.622167 (at node 4)
Accepted flit rate average= 0.0744444
	minimum = 0 (at node 0)
	maximum = 0.620333 (at node 8)
Injected packet length average = 1
Accepted packet length average = 1
Total in-flight flits = 13 (0 measured)
====== Peak Queue Occupancy Statistics (Absolute Max) ======
  Overall Max VC Occupancy = 1
  Overall Max Buffer Occupancy = 2
latency change    = 0.00135295
throughput change = 0.328856
Warmed up ...Time used is 6000 cycles
Class 0:
Packet latency average = 13.3188
	minimum = 11
	maximum = 20
	95th percentile = 18.5
	99th percentile = 19.5
Network latency average = 13.3188
	minimum = 11
	maximum = 20
	95th percentile = 18.5
	99th percentile = 19.5
Slowest packet = 7808
Flit latency average = 13.3193
	minimum = 11
	maximum = 20
	95th percentile = 18.5
	99th percentile = 19.5
Slowest flit = 7808
Fragmentation average = 0
	minimum = 0
	maximum = 0
Injected packet rate average = 0.148889
	minimum = 0 (at node 1)
	maximum = 0.806333 (at node 4)
Accepted packet rate average = 0.148593
	minimum = 0 (at node 0)
	maximum = 0.805667 (at node 8)
Injected flit rate average = 0.148889
	minimum = 0 (at node 1)
	maximum = 0.806333 (at node 4)
Accepted flit rate average= 0.148593
	minimum = 0 (at node 0)
	maximum = 0.805667 (at node 8)
Injected packet length average = 1
Accepted packet length average = 1
Total in-flight flits = 21 (21 measured)
====== Peak Queue Occupancy Statistics (Absolute Max) ======
  Overall Max VC Occupancy = 1
  Overall Max Buffer Occupancy = 2
latency change    = 0.0058589
throughput change = 0.499003
Class 0:
Packet latency average = 13.3626
	minimum = 11
	maximum = 20
	95th percentile = 18.5
	99th percentile = 19.5
Network latency average = 13.3626
	minimum = 11
	maximum = 20
	95th percentile = 18.5
	99th percentile = 19.5
Slowest packet = 7808
Flit latency average = 13.3627
	minimum = 11
	maximum = 20
	95th percentile = 18.5
	99th percentile = 19.5
Slowest flit = 7808
Fragmentation average = 0
	minimum = 0
	maximum = 0
Injected packet rate average = 0.174444
	minimum = 0 (at node 1)
	maximum = 0.806333 (at node 4)
Accepted packet rate average = 0.174259
	minimum = 0 (at node 0)
	maximum = 0.8065 (at node 8)
Injected flit rate average = 0.174444
	minimum = 0 (at node 1)
	maximum = 0.806333 (at node 4)
Accepted flit rate average= 0.174259
	minimum = 0 (at node 0)
	maximum = 0.8065 (at node 8)
Injected packet length average = 1
Accepted packet length average = 1
Total in-flight flits = 23 (23 measured)
====== Peak Queue Occupancy Statistics (Absolute Max) ======
  Overall Max VC Occupancy = 1
  Overall Max Buffer Occupancy = 2
latency change    = 0.00327279
throughput change = 0.14729
Class 0:
Packet latency average = 13.4643
	minimum = 11
	maximum = 21
	95th percentile = 18.5
	99th percentile = 19.5
Network latency average = 13.4643
	minimum = 11
	maximum = 21
	95th percentile = 18.5
	99th percentile = 19.5
Slowest packet = 14825
Flit latency average = 13.4643
	minimum = 11
	maximum = 21
	95th percentile = 18.5
	99th percentile = 19.5
Slowest flit = 14825
Fragmentation average = 0
	minimum = 0
	maximum = 0
Injected packet rate average = 0.199988
	minimum = 0 (at node 1)
	maximum = 0.803333 (at node 4)
Accepted packet rate average = 0.199815
	minimum = 0 (at node 0)
	maximum = 0.803333 (at node 8)
Injected flit rate average = 0.199988
	minimum = 0 (at node 1)
	maximum = 0.803333 (at node 4)
Accepted flit rate average= 0.199815
	minimum = 0 (at node 0)
	maximum = 0.803333 (at node 8)
Injected packet length average = 1
Accepted packet length average = 1
Total in-flight flits = 27 (27 measured)
====== Peak Queue Occupancy Statistics (Absolute Max) ======
  Overall Max VC Occupancy = 1
  Overall Max Buffer Occupancy = 2
latency change    = 0.00755764
throughput change = 0.127896
Class 0:
Packet latency average = 13.7075
	minimum = 11
	maximum = 24
	95th percentile = 18.5
	99th percentile = 19.5
Network latency average = 13.7075
	minimum = 11
	maximum = 24
	95th percentile = 18.5
	99th percentile = 19.5
Slowest packet = 23575
Flit latency average = 13.7073
	minimum = 11
	maximum = 24
	95th percentile = 18.5
	99th percentile = 19.5
Slowest flit = 23575
Fragmentation average = 0
	minimum = 0
	maximum = 0
Injected packet rate average = 0.22488
	minimum = 0 (at node 1)
	maximum = 0.803083 (at node 4)
Accepted packet rate average = 0.224657
	minimum = 0 (at node 0)
	maximum = 0.80325 (at node 8)
Injected flit rate average = 0.22488
	minimum = 0 (at node 1)
	maximum = 0.803083 (at node 4)
Accepted flit rate average= 0.224657
	minimum = 0 (at node 0)
	maximum = 0.80325 (at node 8)
Injected packet length average = 1
Accepted packet length average = 1
Total in-flight flits = 37 (37 measured)
====== Peak Queue Occupancy Statistics (Absolute Max) ======
  Overall Max VC Occupancy = 1
  Overall Max Buffer Occupancy = 2
latency change    = 0.017738
throughput change = 0.11058
Class 0:
Packet latency average = 14.0444
	minimum = 11
	maximum = 24
	95th percentile = 19.5
	99th percentile = 20.5
Network latency average = 14.0444
	minimum = 11
	maximum = 24
	95th percentile = 19.5
	99th percentile = 20.5
Slowest packet = 23575
Flit latency average = 14.0442
	minimum = 11
	maximum = 24
	95th percentile = 19.5
	99th percentile = 20.5
Slowest flit = 23575
Fragmentation average = 0
	minimum = 0
	maximum = 0
Injected packet rate average = 0.249807
	minimum = 0 (at node 1)
	maximum = 0.803 (at node 4)
Accepted packet rate average = 0.2496
	minimum = 0 (at node 0)
	maximum = 0.803067 (at node 8)
Injected flit rate average = 0.249807
	minimum = 0 (at node 1)
	maximum = 0.803 (at node 4)
Accepted flit rate average= 0.2496
	minimum = 0 (at node 0)
	maximum = 0.803067 (at node 8)
Injected packet length average = 1
Accepted packet length average = 1
Total in-flight flits = 41 (41 measured)
====== Peak Queue Occupancy Statistics (Absolute Max) ======
  Overall Max VC Occupancy = 1
  Overall Max Buffer Occupancy = 2
latency change    = 0.0239918
throughput change = 0.0999303
Class 0:
Packet latency average = 14.3725
	minimum = 11
	maximum = 24
	95th percentile = 19.5
	99th percentile = 20.5
Network latency average = 14.3725
	minimum = 11
	maximum = 24
	95th percentile = 19.5
	99th percentile = 20.5
Slowest packet = 23575
Flit latency average = 14.3722
	minimum = 11
	maximum = 24
	95th percentile = 19.5
	99th percentile = 20.5
Slowest flit = 23575
Fragmentation average = 0
	minimum = 0
	maximum = 0
Injected packet rate average = 0.27592
	minimum = 0 (at node 1)
	maximum = 0.803556 (at node 4)
Accepted packet rate average = 0.275636
	minimum = 0 (at node 1)
	maximum = 0.803556 (at node 8)
Injected flit rate average = 0.27592
	minimum = 0 (at node 1)
	maximum = 0.803556 (at node 4)
Accepted flit rate average= 0.275636
	minimum = 0 (at node 1)
	maximum = 0.803556 (at node 8)
Injected packet length average = 1
Accepted packet length average = 1
Total in-flight flits = 59 (59 measured)
====== Peak Queue Occupancy Statistics (Absolute Max) ======
  Overall Max VC Occupancy = 1
  Overall Max Buffer Occupancy = 2
latency change    = 0.0228252
throughput change = 0.0944573
Class 0:
Packet latency average = 14.6604
	minimum = 11
	maximum = 24
	95th percentile = 19.5
	99th percentile = 20.5
Network latency average = 14.6604
	minimum = 11
	maximum = 24
	95th percentile = 19.5
	99th percentile = 20.5
Slowest packet = 23575
Flit latency average = 14.6601
	minimum = 11
	maximum = 24
	95th percentile = 19.5
	99th percentile = 20.5
Slowest flit = 23575
Fragmentation average = 0
	minimum = 0
	maximum = 0
Injected packet rate average = 0.300556
	minimum = 0 (at node 3)
	maximum = 0.803524 (at node 4)
Accepted packet rate average = 0.300259
	minimum = 0 (at node 1)
	maximum = 0.803476 (at node 8)
Injected flit rate average = 0.300556
	minimum = 0 (at node 3)
	maximum = 0.803524 (at node 4)
Accepted flit rate average= 0.300259
	minimum = 0 (at node 1)
	maximum = 0.803476 (at node 8)
Injected packet length average = 1
Accepted packet length average = 1
Total in-flight flits = 69 (69 measured)
====== Peak Queue Occupancy Statistics (Absolute Max) ======
  Overall Max VC Occupancy = 1
  Overall Max Buffer Occupancy = 2
latency change    = 0.0196407
throughput change = 0.0820073
Class 0:
Packet latency average = 14.8955
	minimum = 11
	maximum = 25
	95th percentile = 20.5
	99th percentile = 21.5
Network latency average = 14.8955
	minimum = 11
	maximum = 25
	95th percentile = 20.5
	99th percentile = 21.5
Slowest packet = 61106
Flit latency average = 14.8952
	minimum = 11
	maximum = 25
	95th percentile = 20.5
	99th percentile = 21.5
Slowest flit = 61106
Fragmentation average = 0
	minimum = 0
	maximum = 0
Injected packet rate average = 0.325792
	minimum = 0 (at node 3)
	maximum = 0.802167 (at node 4)
Accepted packet rate average = 0.325532
	minimum = 0 (at node 1)
	maximum = 0.802083 (at node 8)
Injected flit rate average = 0.325792
	minimum = 0 (at node 3)
	maximum = 0.802167 (at node 4)
Accepted flit rate average= 0.325532
	minimum = 0 (at node 1)
	maximum = 0.802083 (at node 8)
Injected packet length average = 1
Accepted packet length average = 1
Total in-flight flits = 69 (69 measured)
====== Peak Queue Occupancy Statistics (Absolute Max) ======
  Overall Max VC Occupancy = 1
  Overall Max Buffer Occupancy = 2
latency change    = 0.0157832
throughput change = 0.0776364
Class 0:
Packet latency average = 15.1017
	minimum = 11
	maximum = 26
	95th percentile = 20.5
	99th percentile = 22.5
Network latency average = 15.1017
	minimum = 11
	maximum = 26
	95th percentile = 20.5
	99th percentile = 22.5
Slowest packet = 76641
Flit latency average = 15.1015
	minimum = 11
	maximum = 26
	95th percentile = 20.5
	99th percentile = 22.5
Slowest flit = 76641
Fragmentation average = 0
	minimum = 0
	maximum = 0
Injected packet rate average = 0.350605
	minimum = 0 (at node 3)
	maximum = 0.801963 (at node 4)
Accepted packet rate average = 0.350329
	minimum = 0 (at node 1)
	maximum = 0.801889 (at node 8)
Injected flit rate average = 0.350605
	minimum = 0 (at node 3)
	maximum = 0.801963 (at node 4)
Accepted flit rate average= 0.350329
	minimum = 0 (at node 1)
	maximum = 0.801889 (at node 8)
Injected packet length average = 1
Accepted packet length average = 1
Total in-flight flits = 80 (80 measured)
====== Peak Queue Occupancy Statistics (Absolute Max) ======
  Overall Max VC Occupancy = 1
  Overall Max Buffer Occupancy = 3
latency change    = 0.0136556
throughput change = 0.0707815
Class 0:
Packet latency average = 15.2676
	minimum = 11
	maximum = 26
	95th percentile = 20.5
	99th percentile = 22.5
Network latency average = 15.2676
	minimum = 11
	maximum = 26
	95th percentile = 20.5
	99th percentile = 22.5
Slowest packet = 76641
Flit latency average = 15.2674
	minimum = 11
	maximum = 26
	95th percentile = 20.5
	99th percentile = 22.5
Slowest flit = 76641
Fragmentation average = 0
	minimum = 0
	maximum = 0
Injected packet rate average = 0.375319
	minimum = 0 (at node 3)
	maximum = 0.801533 (at node 4)
Accepted packet rate average = 0.375048
	minimum = 0 (at node 1)
	maximum = 0.801433 (at node 8)
Injected flit rate average = 0.375319
	minimum = 0 (at node 3)
	maximum = 0.801533 (at node 4)
Accepted flit rate average= 0.375048
	minimum = 0 (at node 1)
	maximum = 0.801433 (at node 8)
Injected packet length average = 1
Accepted packet length average = 1
Total in-flight flits = 86 (86 measured)
====== Peak Queue Occupancy Statistics (Absolute Max) ======
  Overall Max VC Occupancy = 1
  Overall Max Buffer Occupancy = 3
latency change    = 0.0108645
throughput change = 0.0659087
Class 0:
Packet latency average = 15.4281
	minimum = 11
	maximum = 29
	95th percentile = 21.5
	99th percentile = 22.5
Network latency average = 15.4281
	minimum = 11
	maximum = 29
	95th percentile = 21.5
	99th percentile = 22.5
Slowest packet = 113115
Flit latency average = 15.4279
	minimum = 11
	maximum = 29
	95th percentile = 21.5
	99th percentile = 22.5
Slowest flit = 113115
Fragmentation average = 0
	minimum = 0
	maximum = 0
Injected packet rate average = 0.400057
	minimum = 0 (at node 6)
	maximum = 0.801485 (at node 4)
Accepted packet rate average = 0.399761
	minimum = 0 (at node 2)
	maximum = 0.801364 (at node 8)
Injected flit rate average = 0.400057
	minimum = 0 (at node 6)
	maximum = 0.801485 (at node 4)
Accepted flit rate average= 0.399761
	minimum = 0 (at node 2)
	maximum = 0.801364 (at node 8)
Injected packet length average = 1
Accepted packet length average = 1
Total in-flight flits = 101 (101 measured)
====== Peak Queue Occupancy Statistics (Absolute Max) ======
  Overall Max VC Occupancy = 1
  Overall Max Buffer Occupancy = 3
latency change    = 0.0104042
throughput change = 0.0618189
Class 0:
Packet latency average = 15.5699
	minimum = 11
	maximum = 29
	95th percentile = 21.5
	99th percentile = 23.5
Network latency average = 15.5699
	minimum = 11
	maximum = 29
	95th percentile = 21.5
	99th percentile = 23.5
Slowest packet = 113115
Flit latency average = 15.5697
	minimum = 11
	maximum = 29
	95th percentile = 21.5
	99th percentile = 23.5
Slowest flit = 113115
Fragmentation average = 0
	minimum = 0
	maximum = 0
Injected packet rate average = 0.424864
	minimum = 0 (at node 6)
	maximum = 0.801444 (at node 4)
Accepted packet rate average = 0.424565
	minimum = 0 (at node 2)
	maximum = 0.801361 (at node 8)
Injected flit rate average = 0.424864
	minimum = 0 (at node 6)
	maximum = 0.801444 (at node 4)
Accepted flit rate average= 0.424565
	minimum = 0 (at node 2)
	maximum = 0.801361 (at node 8)
Injected packet length average = 1
Accepted packet length average = 1
Total in-flight flits = 110 (110 measured)
====== Peak Queue Occupancy Statistics (Absolute Max) ======
  Overall Max VC Occupancy = 1
  Overall Max Buffer Occupancy = 3
latency change    = 0.00910796
throughput change = 0.0584219
Class 0:
Packet latency average = 15.7243
	minimum = 11
	maximum = 29
	95th percentile = 21.5
	99th percentile = 23.5
Network latency average = 15.7243
	minimum = 11
	maximum = 29
	95th percentile = 21.5
	99th percentile = 23.5
Slowest packet = 113115
Flit latency average = 15.7242
	minimum = 11
	maximum = 29
	95th percentile = 21.5
	99th percentile = 23.5
Slowest flit = 113115
Fragmentation average = 0
	minimum = 0
	maximum = 0
Injected packet rate average = 0.450068
	minimum = 0.0271282 (at node 6)
	maximum = 0.801564 (at node 4)
Accepted packet rate average = 0.449775
	minimum = 0.027 (at node 2)
	maximum = 0.801487 (at node 8)
Injected flit rate average = 0.450068
	minimum = 0.0271282 (at node 6)
	maximum = 0.801564 (at node 4)
Accepted flit rate average= 0.449775
	minimum = 0.027 (at node 2)
	maximum = 0.801487 (at node 8)
Injected packet length average = 1
Accepted packet length average = 1
Total in-flight flits = 116 (116 measured)
====== Peak Queue Occupancy Statistics (Absolute Max) ======
  Overall Max VC Occupancy = 1
  Overall Max Buffer Occupancy = 3
latency change    = 0.00981967
throughput change = 0.0560505
Class 0:
Packet latency average = 15.9301
	minimum = 11
	maximum = 29
	95th percentile = 22.5
	99th percentile = 24.5
Network latency average = 15.9301
	minimum = 11
	maximum = 29
	95th percentile = 22.5
	99th percentile = 24.5
Slowest packet = 113115
Flit latency average = 15.93
	minimum = 11
	maximum = 29
	95th percentile = 22.5
	99th percentile = 24.5
Slowest flit = 113115
Fragmentation average = 0
	minimum = 0
	maximum = 0
Injected packet rate average = 0.474746
	minimum = 0.0817381 (at node 6)
	maximum = 0.801405 (at node 4)
Accepted packet rate average = 0.474458
	minimum = 0.0813333 (at node 2)
	maximum = 0.801357 (at node 8)
Injected flit rate average = 0.474746
	minimum = 0.0817381 (at node 6)
	maximum = 0.801405 (at node 4)
Accepted flit rate average= 0.474458
	minimum = 0.0813333 (at node 2)
	maximum = 0.801357 (at node 8)
Injected packet length average = 1
Accepted packet length average = 1
Total in-flight flits = 122 (122 measured)
====== Peak Queue Occupancy Statistics (Absolute Max) ======
  Overall Max VC Occupancy = 1
  Overall Max Buffer Occupancy = 3
latency change    = 0.0129186
throughput change = 0.0520231
Class 0:
Packet latency average = 16.1051
	minimum = 11
	maximum = 29
	95th percentile = 22.5
	99th percentile = 24.5
Network latency average = 16.1051
	minimum = 11
	maximum = 29
	95th percentile = 22.5
	99th percentile = 24.5
Slowest packet = 113115
Flit latency average = 16.1049
	minimum = 11
	maximum = 29
	95th percentile = 22.5
	99th percentile = 24.5
Slowest flit = 113115
Fragmentation average = 0
	minimum = 0
	maximum = 0
Injected packet rate average = 0.496336
	minimum = 0.129733 (at node 6)
	maximum = 0.801222 (at node 4)
Accepted packet rate average = 0.496059
	minimum = 0.129267 (at node 2)
	maximum = 0.801222 (at node 8)
Injected flit rate average = 0.496336
	minimum = 0.129733 (at node 6)
	maximum = 0.801222 (at node 4)
Accepted flit rate average= 0.496059
	minimum = 0.129267 (at node 2)
	maximum = 0.801222 (at node 8)
Injected packet length average = 1
Accepted packet length average = 1
Total in-flight flits = 125 (125 measured)
====== Peak Queue Occupancy Statistics (Absolute Max) ======
  Overall Max VC Occupancy = 1
  Overall Max Buffer Occupancy = 3
latency change    = 0.0108622
throughput change = 0.0435464
Class 0:
Packet latency average = 16.2355
	minimum = 11
	maximum = 29
	95th percentile = 22.5
	99th percentile = 24.5
Network latency average = 16.2355
	minimum = 11
	maximum = 29
	95th percentile = 22.5
	99th percentile = 24.5
Slowest packet = 113115
Flit latency average = 16.2353
	minimum = 11
	maximum = 29
	95th percentile = 22.5
	99th percentile = 24.5
Slowest flit = 113115
Fragmentation average = 0
	minimum = 0
	maximum = 0
Injected packet rate average = 0.515079
	minimum = 0.170583 (at node 6)
	maximum = 0.800479 (at node 4)
Accepted packet rate average = 0.514794
	minimum = 0.170167 (at node 2)
	maximum = 0.800396 (at node 8)
Injected flit rate average = 0.515079
	minimum = 0.170583 (at node 6)
	maximum = 0.800479 (at node 4)
Accepted flit rate average= 0.514794
	minimum = 0.170167 (at node 2)
	maximum = 0.800396 (at node 8)
Injected packet length average = 1
Accepted packet length average = 1
Total in-flight flits = 136 (136 measured)
====== Peak Queue Occupancy Statistics (Absolute Max) ======
  Overall Max VC Occupancy = 1
  Overall Max Buffer Occupancy = 3
latency change    = 0.00803103
throughput change = 0.0363927
Class 0:
Packet latency average = 16.3426
	minimum = 11
	maximum = 29
	95th percentile = 22.5
	99th percentile = 24.5
Network latency average = 16.3426
	minimum = 11
	maximum = 29
	95th percentile = 22.5
	99th percentile = 24.5
Slowest packet = 113115
Flit latency average = 16.3424
	minimum = 11
	maximum = 29
	95th percentile = 22.5
	99th percentile = 24.5
Slowest flit = 113115
Fragmentation average = 0
	minimum = 0
	maximum = 0
Injected packet rate average = 0.53159
	minimum = 0.206471 (at node 6)
	maximum = 0.800706 (at node 4)
Accepted packet rate average = 0.531331
	minimum = 0.206137 (at node 2)
	maximum = 0.800608 (at node 8)
Injected flit rate average = 0.53159
	minimum = 0.206471 (at node 6)
	maximum = 0.800706 (at node 4)
Accepted flit rate average= 0.531331
	minimum = 0.206137 (at node 2)
	maximum = 0.800608 (at node 8)
Injected packet length average = 1
Accepted packet length average = 1
Total in-flight flits = 132 (132 measured)
====== Peak Queue Occupancy Statistics (Absolute Max) ======
  Overall Max VC Occupancy = 1
  Overall Max Buffer Occupancy = 3
latency change    = 0.00655611
throughput change = 0.031124
Draining all recorded packets ...
Draining remaining packets ...
Time taken is 57047 cycles
====== Overall Traffic Statistics ======
====== Traffic class 0 ======
Packet latency average = 16.344 (1 samples)
	minimum = 11 (1 samples)
	maximum = 29 (1 samples)
Network latency average = 16.344 (1 samples)
	minimum = 11 (1 samples)
	maximum = 29 (1 samples)
Flit latency average = 16.3442 (1 samples)
	minimum = 11 (1 samples)
	maximum = 29 (1 samples)
Fragmentation average = 0 (1 samples)
	minimum = 0 (1 samples)
	maximum = 0 (1 samples)
Injected packet rate average = 0.53159 (1 samples)
	minimum = 0.206471 (1 samples)
	maximum = 0.800706 (1 samples)
Accepted packet rate average = 0.531331 (1 samples)
	minimum = 0.206137 (1 samples)
	maximum = 0.800608 (1 samples)
Injected flit rate average = 0.53159 (1 samples)
	minimum = 0.206471 (1 samples)
	maximum = 0.800706 (1 samples)
Accepted flit rate average = 0.531331 (1 samples)
	minimum = 0.206137 (1 samples)
	maximum = 0.800608 (1 samples)
Injected packet size average = 1 (1 samples)
Accepted packet size average = 1 (1 samples)
Hops average = 4.04994 (1 samples)
Total run time 8.84957

