BEGIN Configuration File: D:\noc_huawei\noc\booksim2-noc_speedup_study\booksim2-noc_speedup_study\tests\data\results\fixed_perm_growth_models_perm_4_3_6_1_8_7_2_5_0_peak_0p8_current_defaults\tmp_configs\ordered_fill_racke_tree_s2203.config
num_vcs     = 48;
vc_buf_size = 16;
wait_for_tail_credit = 1;

vc_allocator = islip;
sw_allocator = islip;
alloc_iters  = 16;

credit_delay   = 2;
routing_delay  = 0;
vc_alloc_delay = 1;
sw_alloc_delay = 1;
st_final_delay = 1;

input_speedup     = 1;
output_speedup    = 1;
internal_speedup  = 2.0;

sim_type = latency;
latency_thres  = 100000.0;
sim_count      = 1;
queue_sample_period_cycles = 0;

topology = mesh;
k  = 3;
n  = 2;

hybrid_transition_mode = linear_prob;
hybrid_xy_low_threshold = 0.35;
hybrid_racke_high_threshold = 0.65;
hybrid_buffer_soft_threshold = 0.50;
hybrid_buffer_hard_threshold = 0.85;
hybrid_buffer_release_threshold = 0.35;
hybrid_rate_soft_threshold = 0.55;
hybrid_rate_hard_threshold = 0.90;
hybrid_rate_weight = 0.25;
hybrid_congestion_alpha = 0.25;
hybrid_racke_increase_step = 0.25;
hybrid_racke_decrease_step = 0.10;
hybrid_epoch_cycles = 200;
hybrid_hold_cycles = 600;
hybrid_enable_midflight_override = 1;
hybrid_feedback_delay_per_hop = 1;
hybrid_flow_increase_step = 0.20;
hybrid_flow_decrease_step = 0.08;
hybrid_flow_hard_threshold = 0.95;

packet_size = 1;

scheduled_injection_rates = {0.10,0.20,0.30};
scheduled_phase_cycles = {1000,1000,1000};
scheduled_default_phase_cycles = 1000;

custom_perm_array = {4,3,6,1,8,7,2,5,0};
warmup_periods = 2;
seed = 2203;
hybrid_flow_hotspot_alpha = 0.85;
injection_process = ordered_fill;
perm_seed = 2203;
ordered_injection_phase_cycles = {3000,3000,3000,3000,3000,3000,3000,3000,3000,3000,3000,3000,3000,3000,3000,3000,3000,3000};
routing_function = racke_tree;
injection_rate = 0.8;
max_samples = 26;
ordered_injection_source_order = {4,0,7,2,8,1,5,3,6};
hybrid_flow_hotspot_threshold = 1.1;
ordered_injection_flow_peak_rate = 0.8;
ordered_injection_coefficients = {0.0625,0.125,0.1875,0.25,0.3125,0.375,0.4375,0.5,0.5625,0.625,0.6875,0.75,0.8125,0.875,0.9375,1.0,1.0,1.0};
hybrid_stats_window_cycles = 3000;
traffic = custom_perm;
sample_period = 3000;

END Configuration File: D:\noc_huawei\noc\booksim2-noc_speedup_study\booksim2-noc_speedup_study\tests\data\results\fixed_perm_growth_models_perm_4_3_6_1_8_7_2_5_0_peak_0p8_current_defaults\tmp_configs\ordered_fill_racke_tree_s2203.config
Class 0:
Packet latency average = 13.2305
	minimum = 11
	maximum = 19
	95th percentile = 18.5
	99th percentile = 18.5
Network latency average = 13.2305
	minimum = 11
	maximum = 19
	95th percentile = 18.5
	99th percentile = 18.5
Slowest packet = 187
Flit latency average = 13.2305
	minimum = 11
	maximum = 19
	95th percentile = 18.5
	99th percentile = 18.5
Slowest flit = 187
Fragmentation average = 0
	minimum = 0
	maximum = 0
Injected packet rate average = 0.0478148
	minimum = 0 (at node 0)
	maximum = 0.430333 (at node 4)
Accepted packet rate average = 0.0475556
	minimum = 0 (at node 0)
	maximum = 0.428 (at node 8)
Injected flit rate average = 0.0478148
	minimum = 0 (at node 0)
	maximum = 0.430333 (at node 4)
Accepted flit rate average= 0.0475556
	minimum = 0 (at node 0)
	maximum = 0.428 (at node 8)
Injected packet length average = 1
Accepted packet length average = 1
Total in-flight flits = 7 (0 measured)
====== Peak Queue Occupancy Statistics (Absolute Max) ======
  Overall Max VC Occupancy = 1
  Overall Max Buffer Occupancy = 2
latency change    = 1
throughput change = 1
Class 0:
Packet latency average = 13.2188
	minimum = 11
	maximum = 19
	95th percentile = 17.5
	99th percentile = 19.5
Network latency average = 13.2188
	minimum = 11
	maximum = 19
	95th percentile = 17.5
	99th percentile = 19.5
Slowest packet = 187
Flit latency average = 13.2188
	minimum = 11
	maximum = 19
	95th percentile = 17.5
	99th percentile = 19.5
Slowest flit = 187
Fragmentation average = 0
	minimum = 0
	maximum = 0
Injected packet rate average = 0.0742037
	minimum = 0 (at node 1)
	maximum = 0.615833 (at node 4)
Accepted packet rate average = 0.0739815
	minimum = 0 (at node 0)
	maximum = 0.614 (at node 8)
Injected flit rate average = 0.0742037
	minimum = 0 (at node 1)
	maximum = 0.615833 (at node 4)
Accepted flit rate average= 0.0739815
	minimum = 0 (at node 0)
	maximum = 0.614 (at node 8)
Injected packet length average = 1
Accepted packet length average = 1
Total in-flight flits = 12 (0 measured)
====== Peak Queue Occupancy Statistics (Absolute Max) ======
  Overall Max VC Occupancy = 1
  Overall Max Buffer Occupancy = 2
latency change    = 0.000889351
throughput change = 0.357196
Warmed up ...Time used is 6000 cycles
Class 0:
Packet latency average = 13.2847
	minimum = 11
	maximum = 19
	95th percentile = 18.5
	99th percentile = 19.5
Network latency average = 13.2847
	minimum = 11
	maximum = 19
	95th percentile = 18.5
	99th percentile = 19.5
Slowest packet = 4057
Flit latency average = 13.2844
	minimum = 11
	maximum = 19
	95th percentile = 18.5
	99th percentile = 19.5
Slowest flit = 4057
Fragmentation average = 0
	minimum = 0
	maximum = 0
Injected packet rate average = 0.150556
	minimum = 0 (at node 1)
	maximum = 0.798667 (at node 4)
Accepted packet rate average = 0.150296
	minimum = 0 (at node 0)
	maximum = 0.798333 (at node 8)
Injected flit rate average = 0.150556
	minimum = 0 (at node 1)
	maximum = 0.798667 (at node 4)
Accepted flit rate average= 0.150296
	minimum = 0 (at node 0)
	maximum = 0.798333 (at node 8)
Injected packet length average = 1
Accepted packet length average = 1
Total in-flight flits = 19 (19 measured)
====== Peak Queue Occupancy Statistics (Absolute Max) ======
  Overall Max VC Occupancy = 1
  Overall Max Buffer Occupancy = 2
latency change    = 0.00496451
throughput change = 0.507762
Class 0:
Packet latency average = 13.3395
	minimum = 11
	maximum = 20
	95th percentile = 18.5
	99th percentile = 19.5
Network latency average = 13.3395
	minimum = 11
	maximum = 20
	95th percentile = 18.5
	99th percentile = 19.5
Slowest packet = 10202
Flit latency average = 13.3392
	minimum = 11
	maximum = 20
	95th percentile = 18.5
	99th percentile = 19.5
Slowest flit = 10202
Fragmentation average = 0
	minimum = 0
	maximum = 0
Injected packet rate average = 0.175741
	minimum = 0 (at node 1)
	maximum = 0.797333 (at node 4)
Accepted packet rate average = 0.175556
	minimum = 0 (at node 0)
	maximum = 0.797333 (at node 8)
Injected flit rate average = 0.175741
	minimum = 0 (at node 1)
	maximum = 0.797333 (at node 4)
Accepted flit rate average= 0.175556
	minimum = 0 (at node 0)
	maximum = 0.797333 (at node 8)
Injected packet length average = 1
Accepted packet length average = 1
Total in-flight flits = 22 (22 measured)
====== Peak Queue Occupancy Statistics (Absolute Max) ======
  Overall Max VC Occupancy = 1
  Overall Max Buffer Occupancy = 2
latency change    = 0.00410313
throughput change = 0.143882
Class 0:
Packet latency average = 13.4572
	minimum = 11
	maximum = 21
	95th percentile = 18.5
	99th percentile = 19.5
Network latency average = 13.4572
	minimum = 11
	maximum = 21
	95th percentile = 18.5
	99th percentile = 19.5
Slowest packet = 14502
Flit latency average = 13.457
	minimum = 11
	maximum = 21
	95th percentile = 18.5
	99th percentile = 19.5
Slowest flit = 14502
Fragmentation average = 0
	minimum = 0
	maximum = 0
Injected packet rate average = 0.200864
	minimum = 0 (at node 1)
	maximum = 0.801333 (at node 4)
Accepted packet rate average = 0.200654
	minimum = 0 (at node 0)
	maximum = 0.801333 (at node 8)
Injected flit rate average = 0.200864
	minimum = 0 (at node 1)
	maximum = 0.801333 (at node 4)
Accepted flit rate average= 0.200654
	minimum = 0 (at node 0)
	maximum = 0.801333 (at node 8)
Injected packet length average = 1
Accepted packet length average = 1
Total in-flight flits = 29 (29 measured)
====== Peak Queue Occupancy Statistics (Absolute Max) ======
  Overall Max VC Occupancy = 1
  Overall Max Buffer Occupancy = 2
latency change    = 0.00875207
throughput change = 0.125085
Class 0:
Packet latency average = 13.7132
	minimum = 11
	maximum = 22
	95th percentile = 18.5
	99th percentile = 19.5
Network latency average = 13.7132
	minimum = 11
	maximum = 22
	95th percentile = 18.5
	99th percentile = 19.5
Slowest packet = 21417
Flit latency average = 13.7129
	minimum = 11
	maximum = 22
	95th percentile = 18.5
	99th percentile = 19.5
Slowest flit = 21417
Fragmentation average = 0
	minimum = 0
	maximum = 0
Injected packet rate average = 0.225852
	minimum = 0 (at node 1)
	maximum = 0.796083 (at node 4)
Accepted packet rate average = 0.225574
	minimum = 0 (at node 0)
	maximum = 0.795833 (at node 8)
Injected flit rate average = 0.225852
	minimum = 0 (at node 1)
	maximum = 0.796083 (at node 4)
Accepted flit rate average= 0.225574
	minimum = 0 (at node 0)
	maximum = 0.795833 (at node 8)
Injected packet length average = 1
Accepted packet length average = 1
Total in-flight flits = 42 (42 measured)
====== Peak Queue Occupancy Statistics (Absolute Max) ======
  Overall Max VC Occupancy = 1
  Overall Max Buffer Occupancy = 2
latency change    = 0.0186641
throughput change = 0.110473
Class 0:
Packet latency average = 14.0357
	minimum = 11
	maximum = 24
	95th percentile = 19.5
	99th percentile = 20.5
Network latency average = 14.0357
	minimum = 11
	maximum = 24
	95th percentile = 19.5
	99th percentile = 20.5
Slowest packet = 29584
Flit latency average = 14.0354
	minimum = 11
	maximum = 24
	95th percentile = 19.5
	99th percentile = 20.5
Slowest flit = 29584
Fragmentation average = 0
	minimum = 0
	maximum = 0
Injected packet rate average = 0.250267
	minimum = 0 (at node 1)
	maximum = 0.797067 (at node 4)
Accepted packet rate average = 0.24997
	minimum = 0 (at node 0)
	maximum = 0.796933 (at node 8)
Injected flit rate average = 0.250267
	minimum = 0 (at node 1)
	maximum = 0.797067 (at node 4)
Accepted flit rate average= 0.24997
	minimum = 0 (at node 0)
	maximum = 0.796933 (at node 8)
Injected packet length average = 1
Accepted packet length average = 1
Total in-flight flits = 52 (52 measured)
====== Peak Queue Occupancy Statistics (Absolute Max) ======
  Overall Max VC Occupancy = 1
  Overall Max Buffer Occupancy = 2
latency change    = 0.0229777
throughput change = 0.0975968
Class 0:
Packet latency average = 14.3456
	minimum = 11
	maximum = 24
	95th percentile = 19.5
	99th percentile = 20.5
Network latency average = 14.3456
	minimum = 11
	maximum = 24
	95th percentile = 19.5
	99th percentile = 20.5
Slowest packet = 29584
Flit latency average = 14.3453
	minimum = 11
	maximum = 24
	95th percentile = 19.5
	99th percentile = 20.5
Slowest flit = 29584
Fragmentation average = 0
	minimum = 0
	maximum = 0
Injected packet rate average = 0.27492
	minimum = 0 (at node 1)
	maximum = 0.797167 (at node 4)
Accepted packet rate average = 0.274679
	minimum = 0 (at node 1)
	maximum = 0.797222 (at node 8)
Injected flit rate average = 0.27492
	minimum = 0 (at node 1)
	maximum = 0.797167 (at node 4)
Accepted flit rate average= 0.274679
	minimum = 0 (at node 1)
	maximum = 0.797222 (at node 8)
Injected packet length average = 1
Accepted packet length average = 1
Total in-flight flits = 51 (51 measured)
====== Peak Queue Occupancy Statistics (Absolute Max) ======
  Overall Max VC Occupancy = 1
  Overall Max Buffer Occupancy = 2
latency change    = 0.0216056
throughput change = 0.0899546
Class 0:
Packet latency average = 14.648
	minimum = 11
	maximum = 25
	95th percentile = 19.5
	99th percentile = 20.5
Network latency average = 14.648
	minimum = 11
	maximum = 25
	95th percentile = 19.5
	99th percentile = 20.5
Slowest packet = 53042
Flit latency average = 14.6477
	minimum = 11
	maximum = 25
	95th percentile = 19.5
	99th percentile = 20.5
Slowest flit = 53042
Fragmentation average = 0
	minimum = 0
	maximum = 0
Injected packet rate average = 0.300254
	minimum = 0 (at node 3)
	maximum = 0.798476 (at node 4)
Accepted packet rate average = 0.299947
	minimum = 0 (at node 1)
	maximum = 0.798429 (at node 8)
Injected flit rate average = 0.300254
	minimum = 0 (at node 3)
	maximum = 0.798476 (at node 4)
Accepted flit rate average= 0.299947
	minimum = 0 (at node 1)
	maximum = 0.798429 (at node 8)
Injected packet length average = 1
Accepted packet length average = 1
Total in-flight flits = 70 (70 measured)
====== Peak Queue Occupancy Statistics (Absolute Max) ======
  Overall Max VC Occupancy = 1
  Overall Max Buffer Occupancy = 2
latency change    = 0.0206427
throughput change = 0.0842418
Class 0:
Packet latency average = 14.8775
	minimum = 11
	maximum = 25
	95th percentile = 19.5
	99th percentile = 21.5
Network latency average = 14.8775
	minimum = 11
	maximum = 25
	95th percentile = 19.5
	99th percentile = 21.5
Slowest packet = 53042
Flit latency average = 14.8772
	minimum = 11
	maximum = 25
	95th percentile = 19.5
	99th percentile = 21.5
Slowest flit = 53042
Fragmentation average = 0
	minimum = 0
	maximum = 0
Injected packet rate average = 0.325324
	minimum = 0 (at node 3)
	maximum = 0.799083 (at node 4)
Accepted packet rate average = 0.325056
	minimum = 0 (at node 1)
	maximum = 0.799 (at node 8)
Injected flit rate average = 0.325324
	minimum = 0 (at node 3)
	maximum = 0.799083 (at node 4)
Accepted flit rate average= 0.325056
	minimum = 0 (at node 1)
	maximum = 0.799 (at node 8)
Injected packet length average = 1
Accepted packet length average = 1
Total in-flight flits = 70 (70 measured)
====== Peak Queue Occupancy Statistics (Absolute Max) ======
  Overall Max VC Occupancy = 1
  Overall Max Buffer Occupancy = 2
latency change    = 0.0154276
throughput change = 0.0772436
Class 0:
Packet latency average = 15.0906
	minimum = 11
	maximum = 27
	95th percentile = 20.5
	99th percentile = 22.5
Network latency average = 15.0906
	minimum = 11
	maximum = 27
	95th percentile = 20.5
	99th percentile = 22.5
Slowest packet = 76753
Flit latency average = 15.0903
	minimum = 11
	maximum = 27
	95th percentile = 20.5
	99th percentile = 22.5
Slowest flit = 76753
Fragmentation average = 0
	minimum = 0
	maximum = 0
Injected packet rate average = 0.350416
	minimum = 0 (at node 3)
	maximum = 0.8 (at node 4)
Accepted packet rate average = 0.35014
	minimum = 0 (at node 1)
	maximum = 0.799889 (at node 8)
Injected flit rate average = 0.350416
	minimum = 0 (at node 3)
	maximum = 0.8 (at node 4)
Accepted flit rate average= 0.35014
	minimum = 0 (at node 1)
	maximum = 0.799889 (at node 8)
Injected packet length average = 1
Accepted packet length average = 1
Total in-flight flits = 79 (79 measured)
====== Peak Queue Occupancy Statistics (Absolute Max) ======
  Overall Max VC Occupancy = 1
  Overall Max Buffer Occupancy = 3
latency change    = 0.0141163
throughput change = 0.071641
Class 0:
Packet latency average = 15.2778
	minimum = 11
	maximum = 27
	95th percentile = 20.5
	99th percentile = 22.5
Network latency average = 15.2778
	minimum = 11
	maximum = 27
	95th percentile = 20.5
	99th percentile = 22.5
Slowest packet = 76753
Flit latency average = 15.2775
	minimum = 11
	maximum = 27
	95th percentile = 20.5
	99th percentile = 22.5
Slowest flit = 76753
Fragmentation average = 0
	minimum = 0
	maximum = 0
Injected packet rate average = 0.37557
	minimum = 0 (at node 3)
	maximum = 0.8003 (at node 4)
Accepted packet rate average = 0.375307
	minimum = 0 (at node 1)
	maximum = 0.800233 (at node 8)
Injected flit rate average = 0.37557
	minimum = 0 (at node 3)
	maximum = 0.8003 (at node 4)
Accepted flit rate average= 0.375307
	minimum = 0 (at node 1)
	maximum = 0.800233 (at node 8)
Injected packet length average = 1
Accepted packet length average = 1
Total in-flight flits = 83 (83 measured)
====== Peak Queue Occupancy Statistics (Absolute Max) ======
  Overall Max VC Occupancy = 1
  Overall Max Buffer Occupancy = 3
latency change    = 0.0122526
throughput change = 0.0670583
Class 0:
Packet latency average = 15.4406
	minimum = 11
	maximum = 27
	95th percentile = 21.5
	99th percentile = 23.5
Network latency average = 15.4406
	minimum = 11
	maximum = 27
	95th percentile = 21.5
	99th percentile = 23.5
Slowest packet = 76753
Flit latency average = 15.4404
	minimum = 11
	maximum = 27
	95th percentile = 21.5
	99th percentile = 23.5
Slowest flit = 76753
Fragmentation average = 0
	minimum = 0
	maximum = 0
Injected packet rate average = 0.400936
	minimum = 0 (at node 6)
	maximum = 0.800576 (at node 4)
Accepted packet rate average = 0.400643
	minimum = 0 (at node 2)
	maximum = 0.800606 (at node 8)
Injected flit rate average = 0.400936
	minimum = 0 (at node 6)
	maximum = 0.800576 (at node 4)
Accepted flit rate average= 0.400643
	minimum = 0 (at node 2)
	maximum = 0.800606 (at node 8)
Injected packet length average = 1
Accepted packet length average = 1
Total in-flight flits = 99 (99 measured)
====== Peak Queue Occupancy Statistics (Absolute Max) ======
  Overall Max VC Occupancy = 1
  Overall Max Buffer Occupancy = 3
latency change    = 0.0105489
throughput change = 0.0632376
Class 0:
Packet latency average = 15.5824
	minimum = 11
	maximum = 29
	95th percentile = 21.5
	99th percentile = 23.5
Network latency average = 15.5824
	minimum = 11
	maximum = 29
	95th percentile = 21.5
	99th percentile = 23.5
Slowest packet = 140716
Flit latency average = 15.5822
	minimum = 11
	maximum = 29
	95th percentile = 21.5
	99th percentile = 23.5
Slowest flit = 140716
Fragmentation average = 0
	minimum = 0
	maximum = 0
Injected packet rate average = 0.425892
	minimum = 0 (at node 6)
	maximum = 0.799111 (at node 4)
Accepted packet rate average = 0.425608
	minimum = 0 (at node 2)
	maximum = 0.799083 (at node 8)
Injected flit rate average = 0.425892
	minimum = 0 (at node 6)
	maximum = 0.799111 (at node 4)
Accepted flit rate average= 0.425608
	minimum = 0 (at node 2)
	maximum = 0.799083 (at node 8)
Injected packet length average = 1
Accepted packet length average = 1
Total in-flight flits = 104 (104 measured)
====== Peak Queue Occupancy Statistics (Absolute Max) ======
  Overall Max VC Occupancy = 1
  Overall Max Buffer Occupancy = 3
latency change    = 0.00910106
throughput change = 0.0586571
Class 0:
Packet latency average = 15.7441
	minimum = 11
	maximum = 29
	95th percentile = 21.5
	99th percentile = 23.5
Network latency average = 15.7441
	minimum = 11
	maximum = 29
	95th percentile = 21.5
	99th percentile = 23.5
Slowest packet = 140716
Flit latency average = 15.7439
	minimum = 11
	maximum = 29
	95th percentile = 21.5
	99th percentile = 23.5
Slowest flit = 140716
Fragmentation average = 0
	minimum = 0
	maximum = 0
Injected packet rate average = 0.45104
	minimum = 0.0259744 (at node 6)
	maximum = 0.799615 (at node 4)
Accepted packet rate average = 0.450755
	minimum = 0.0258205 (at node 2)
	maximum = 0.799564 (at node 8)
Injected flit rate average = 0.45104
	minimum = 0.0259744 (at node 6)
	maximum = 0.799615 (at node 4)
Accepted flit rate average= 0.450755
	minimum = 0.0258205 (at node 2)
	maximum = 0.799564 (at node 8)
Injected packet length average = 1
Accepted packet length average = 1
Total in-flight flits = 112 (112 measured)
====== Peak Queue Occupancy Statistics (Absolute Max) ======
  Overall Max VC Occupancy = 1
  Overall Max Buffer Occupancy = 3
latency change    = 0.0102698
throughput change = 0.0557885
Class 0:
Packet latency average = 15.9531
	minimum = 11
	maximum = 29
	95th percentile = 22.5
	99th percentile = 24.5
Network latency average = 15.9531
	minimum = 11
	maximum = 29
	95th percentile = 22.5
	99th percentile = 24.5
Slowest packet = 140716
Flit latency average = 15.9529
	minimum = 11
	maximum = 29
	95th percentile = 22.5
	99th percentile = 24.5
Slowest flit = 140716
Fragmentation average = 0
	minimum = 0
	maximum = 0
Injected packet rate average = 0.47563
	minimum = 0.0806429 (at node 6)
	maximum = 0.799929 (at node 4)
Accepted packet rate average = 0.475331
	minimum = 0.0802381 (at node 2)
	maximum = 0.799929 (at node 8)
Injected flit rate average = 0.47563
	minimum = 0.0806429 (at node 6)
	maximum = 0.799929 (at node 4)
Accepted flit rate average= 0.475331
	minimum = 0.0802381 (at node 2)
	maximum = 0.799929 (at node 8)
Injected packet length average = 1
Accepted packet length average = 1
Total in-flight flits = 125 (125 measured)
====== Peak Queue Occupancy Statistics (Absolute Max) ======
  Overall Max VC Occupancy = 1
  Overall Max Buffer Occupancy = 3
latency change    = 0.0130958
throughput change = 0.0517023
Class 0:
Packet latency average = 16.1299
	minimum = 11
	maximum = 29
	95th percentile = 22.5
	99th percentile = 24.5
Network latency average = 16.1299
	minimum = 11
	maximum = 29
	95th percentile = 22.5
	99th percentile = 24.5
Slowest packet = 140716
Flit latency average = 16.1297
	minimum = 11
	maximum = 29
	95th percentile = 22.5
	99th percentile = 24.5
Slowest flit = 140716
Fragmentation average = 0
	minimum = 0
	maximum = 0
Injected packet rate average = 0.497259
	minimum = 0.128378 (at node 6)
	maximum = 0.800022 (at node 4)
Accepted packet rate average = 0.496975
	minimum = 0.127956 (at node 2)
	maximum = 0.8 (at node 8)
Injected flit rate average = 0.497259
	minimum = 0.128378 (at node 6)
	maximum = 0.800022 (at node 4)
Accepted flit rate average= 0.496975
	minimum = 0.127956 (at node 2)
	maximum = 0.8 (at node 8)
Injected packet length average = 1
Accepted packet length average = 1
Total in-flight flits = 127 (127 measured)
====== Peak Queue Occupancy Statistics (Absolute Max) ======
  Overall Max VC Occupancy = 1
  Overall Max Buffer Occupancy = 3
latency change    = 0.0109643
throughput change = 0.0435527
Class 0:
Packet latency average = 16.2691
	minimum = 11
	maximum = 29
	95th percentile = 22.5
	99th percentile = 24.5
Network latency average = 16.2691
	minimum = 11
	maximum = 29
	95th percentile = 22.5
	99th percentile = 24.5
Slowest packet = 140716
Flit latency average = 16.269
	minimum = 11
	maximum = 29
	95th percentile = 22.5
	99th percentile = 24.5
Slowest flit = 140716
Fragmentation average = 0
	minimum = 0
	maximum = 0
Injected packet rate average = 0.51612
	minimum = 0.169813 (at node 6)
	maximum = 0.799375 (at node 4)
Accepted packet rate average = 0.51587
	minimum = 0.169521 (at node 2)
	maximum = 0.799375 (at node 8)
Injected flit rate average = 0.51612
	minimum = 0.169813 (at node 6)
	maximum = 0.799375 (at node 4)
Accepted flit rate average= 0.51587
	minimum = 0.169521 (at node 2)
	maximum = 0.799375 (at node 8)
Injected packet length average = 1
Accepted packet length average = 1
Total in-flight flits = 120 (120 measured)
====== Peak Queue Occupancy Statistics (Absolute Max) ======
  Overall Max VC Occupancy = 1
  Overall Max Buffer Occupancy = 3
latency change    = 0.00855761
throughput change = 0.0366275
Class 0:
Packet latency average = 16.3779
	minimum = 11
	maximum = 29
	95th percentile = 22.5
	99th percentile = 24.5
Network latency average = 16.3779
	minimum = 11
	maximum = 29
	95th percentile = 22.5
	99th percentile = 24.5
Slowest packet = 140716
Flit latency average = 16.3778
	minimum = 11
	maximum = 29
	95th percentile = 22.5
	99th percentile = 24.5
Slowest flit = 140716
Fragmentation average = 0
	minimum = 0
	maximum = 0
Injected packet rate average = 0.53259
	minimum = 0.20598 (at node 6)
	maximum = 0.799431 (at node 4)
Accepted packet rate average = 0.532331
	minimum = 0.205686 (at node 2)
	maximum = 0.799353 (at node 8)
Injected flit rate average = 0.53259
	minimum = 0.20598 (at node 6)
	maximum = 0.799431 (at node 4)
Accepted flit rate average= 0.532331
	minimum = 0.205686 (at node 2)
	maximum = 0.799353 (at node 8)
Injected packet length average = 1
Accepted packet length average = 1
Total in-flight flits = 131 (131 measured)
====== Peak Queue Occupancy Statistics (Absolute Max) ======
  Overall Max VC Occupancy = 1
  Overall Max Buffer Occupancy = 3
latency change    = 0.00664185
throughput change = 0.0309221
Draining all recorded packets ...
Draining remaining packets ...
Time taken is 57050 cycles
====== Overall Traffic Statistics ======
====== Traffic class 0 ======
Packet latency average = 16.3792 (1 samples)
	minimum = 11 (1 samples)
	maximum = 29 (1 samples)
Network latency average = 16.3792 (1 samples)
	minimum = 11 (1 samples)
	maximum = 29 (1 samples)
Flit latency average = 16.3802 (1 samples)
	minimum = 11 (1 samples)
	maximum = 29 (1 samples)
Fragmentation average = 0 (1 samples)
	minimum = 0 (1 samples)
	maximum = 0 (1 samples)
Injected packet rate average = 0.53259 (1 samples)
	minimum = 0.20598 (1 samples)
	maximum = 0.799431 (1 samples)
Accepted packet rate average = 0.532331 (1 samples)
	minimum = 0.205686 (1 samples)
	maximum = 0.799353 (1 samples)
Injected flit rate average = 0.53259 (1 samples)
	minimum = 0.20598 (1 samples)
	maximum = 0.799431 (1 samples)
Accepted flit rate average = 0.532331 (1 samples)
	minimum = 0.205686 (1 samples)
	maximum = 0.799353 (1 samples)
Injected packet size average = 1 (1 samples)
Accepted packet size average = 1 (1 samples)
Hops average = 4.04917 (1 samples)
Total run time 9.04357

