BEGIN Configuration File: D:\noc_huawei\noc\booksim2-noc_speedup_study\booksim2-noc_speedup_study\tests\data\results\fixed_perm_growth_models_perm_4_3_6_1_8_7_2_5_0_peak_0p8_current_defaults\tmp_configs\ordered_fill_racke_tree_s2204.config
num_vcs     = 48;
vc_buf_size = 16;
wait_for_tail_credit = 1;

vc_allocator = islip;
sw_allocator = islip;
alloc_iters  = 16;

credit_delay   = 2;
routing_delay  = 0;
vc_alloc_delay = 1;
sw_alloc_delay = 1;
st_final_delay = 1;

input_speedup     = 1;
output_speedup    = 1;
internal_speedup  = 2.0;

sim_type = latency;
latency_thres  = 100000.0;
sim_count      = 1;
queue_sample_period_cycles = 0;

topology = mesh;
k  = 3;
n  = 2;

hybrid_transition_mode = linear_prob;
hybrid_xy_low_threshold = 0.35;
hybrid_racke_high_threshold = 0.65;
hybrid_buffer_soft_threshold = 0.50;
hybrid_buffer_hard_threshold = 0.85;
hybrid_buffer_release_threshold = 0.35;
hybrid_rate_soft_threshold = 0.55;
hybrid_rate_hard_threshold = 0.90;
hybrid_rate_weight = 0.25;
hybrid_congestion_alpha = 0.25;
hybrid_racke_increase_step = 0.25;
hybrid_racke_decrease_step = 0.10;
hybrid_epoch_cycles = 200;
hybrid_hold_cycles = 600;
hybrid_enable_midflight_override = 1;
hybrid_feedback_delay_per_hop = 1;
hybrid_flow_increase_step = 0.20;
hybrid_flow_decrease_step = 0.08;
hybrid_flow_hard_threshold = 0.95;

packet_size = 1;

scheduled_injection_rates = {0.10,0.20,0.30};
scheduled_phase_cycles = {1000,1000,1000};
scheduled_default_phase_cycles = 1000;

custom_perm_array = {4,3,6,1,8,7,2,5,0};
warmup_periods = 2;
seed = 2204;
hybrid_flow_hotspot_alpha = 0.85;
injection_process = ordered_fill;
perm_seed = 2204;
ordered_injection_phase_cycles = {3000,3000,3000,3000,3000,3000,3000,3000,3000,3000,3000,3000,3000,3000,3000,3000,3000,3000};
routing_function = racke_tree;
injection_rate = 0.8;
max_samples = 26;
ordered_injection_source_order = {4,0,7,2,8,1,5,3,6};
hybrid_flow_hotspot_threshold = 1.1;
ordered_injection_flow_peak_rate = 0.8;
ordered_injection_coefficients = {0.0625,0.125,0.1875,0.25,0.3125,0.375,0.4375,0.5,0.5625,0.625,0.6875,0.75,0.8125,0.875,0.9375,1.0,1.0,1.0};
hybrid_stats_window_cycles = 3000;
traffic = custom_perm;
sample_period = 3000;

END Configuration File: D:\noc_huawei\noc\booksim2-noc_speedup_study\booksim2-noc_speedup_study\tests\data\results\fixed_perm_growth_models_perm_4_3_6_1_8_7_2_5_0_peak_0p8_current_defaults\tmp_configs\ordered_fill_racke_tree_s2204.config
Class 0:
Packet latency average = 13.2459
	minimum = 11
	maximum = 19
	95th percentile = 18.5
	99th percentile = 18.5
Network latency average = 13.2459
	minimum = 11
	maximum = 19
	95th percentile = 18.5
	99th percentile = 18.5
Slowest packet = 73
Flit latency average = 13.2459
	minimum = 11
	maximum = 19
	95th percentile = 18.5
	99th percentile = 18.5
Slowest flit = 73
Fragmentation average = 0
	minimum = 0
	maximum = 0
Injected packet rate average = 0.0502593
	minimum = 0 (at node 0)
	maximum = 0.452333 (at node 4)
Accepted packet rate average = 0.05
	minimum = 0 (at node 0)
	maximum = 0.45 (at node 8)
Injected flit rate average = 0.0502593
	minimum = 0 (at node 0)
	maximum = 0.452333 (at node 4)
Accepted flit rate average= 0.05
	minimum = 0 (at node 0)
	maximum = 0.45 (at node 8)
Injected packet length average = 1
Accepted packet length average = 1
Total in-flight flits = 7 (0 measured)
====== Peak Queue Occupancy Statistics (Absolute Max) ======
  Overall Max VC Occupancy = 1
  Overall Max Buffer Occupancy = 2
latency change    = 1
throughput change = 1
Class 0:
Packet latency average = 13.2279
	minimum = 11
	maximum = 19
	95th percentile = 17.5
	99th percentile = 19.5
Network latency average = 13.2279
	minimum = 11
	maximum = 19
	95th percentile = 17.5
	99th percentile = 19.5
Slowest packet = 73
Flit latency average = 13.2279
	minimum = 11
	maximum = 19
	95th percentile = 17.5
	99th percentile = 19.5
Slowest flit = 73
Fragmentation average = 0
	minimum = 0
	maximum = 0
Injected packet rate average = 0.0753148
	minimum = 0 (at node 1)
	maximum = 0.623667 (at node 4)
Accepted packet rate average = 0.0750741
	minimum = 0 (at node 0)
	maximum = 0.621667 (at node 8)
Injected flit rate average = 0.0753148
	minimum = 0 (at node 1)
	maximum = 0.623667 (at node 4)
Accepted flit rate average= 0.0750741
	minimum = 0 (at node 0)
	maximum = 0.621667 (at node 8)
Injected packet length average = 1
Accepted packet length average = 1
Total in-flight flits = 13 (0 measured)
====== Peak Queue Occupancy Statistics (Absolute Max) ======
  Overall Max VC Occupancy = 1
  Overall Max Buffer Occupancy = 2
latency change    = 0.00136098
throughput change = 0.333991
Warmed up ...Time used is 6000 cycles
Class 0:
Packet latency average = 13.29
	minimum = 11
	maximum = 19
	95th percentile = 18.5
	99th percentile = 19.5
Network latency average = 13.29
	minimum = 11
	maximum = 19
	95th percentile = 18.5
	99th percentile = 19.5
Slowest packet = 4119
Flit latency average = 13.293
	minimum = 11
	maximum = 19
	95th percentile = 18.5
	99th percentile = 19.5
Slowest flit = 4119
Fragmentation average = 0
	minimum = 0
	maximum = 0
Injected packet rate average = 0.150407
	minimum = 0 (at node 1)
	maximum = 0.8 (at node 4)
Accepted packet rate average = 0.150185
	minimum = 0 (at node 0)
	maximum = 0.800333 (at node 8)
Injected flit rate average = 0.150407
	minimum = 0 (at node 1)
	maximum = 0.8 (at node 4)
Accepted flit rate average= 0.150185
	minimum = 0 (at node 0)
	maximum = 0.800333 (at node 8)
Injected packet length average = 1
Accepted packet length average = 1
Total in-flight flits = 19 (19 measured)
====== Peak Queue Occupancy Statistics (Absolute Max) ======
  Overall Max VC Occupancy = 1
  Overall Max Buffer Occupancy = 2
latency change    = 0.00466762
throughput change = 0.500123
Class 0:
Packet latency average = 13.3476
	minimum = 11
	maximum = 20
	95th percentile = 18.5
	99th percentile = 19.5
Network latency average = 13.3476
	minimum = 11
	maximum = 20
	95th percentile = 18.5
	99th percentile = 19.5
Slowest packet = 9890
Flit latency average = 13.3489
	minimum = 11
	maximum = 20
	95th percentile = 18.5
	99th percentile = 19.5
Slowest flit = 9890
Fragmentation average = 0
	minimum = 0
	maximum = 0
Injected packet rate average = 0.173759
	minimum = 0 (at node 1)
	maximum = 0.792 (at node 4)
Accepted packet rate average = 0.173574
	minimum = 0 (at node 0)
	maximum = 0.792167 (at node 8)
Injected flit rate average = 0.173759
	minimum = 0 (at node 1)
	maximum = 0.792 (at node 4)
Accepted flit rate average= 0.173574
	minimum = 0 (at node 0)
	maximum = 0.792167 (at node 8)
Injected packet length average = 1
Accepted packet length average = 1
Total in-flight flits = 23 (23 measured)
====== Peak Queue Occupancy Statistics (Absolute Max) ======
  Overall Max VC Occupancy = 1
  Overall Max Buffer Occupancy = 2
latency change    = 0.00432242
throughput change = 0.134749
Class 0:
Packet latency average = 13.4714
	minimum = 11
	maximum = 21
	95th percentile = 18.5
	99th percentile = 19.5
Network latency average = 13.4714
	minimum = 11
	maximum = 21
	95th percentile = 18.5
	99th percentile = 19.5
Slowest packet = 13666
Flit latency average = 13.472
	minimum = 11
	maximum = 21
	95th percentile = 18.5
	99th percentile = 19.5
Slowest flit = 13666
Fragmentation average = 0
	minimum = 0
	maximum = 0
Injected packet rate average = 0.198605
	minimum = 0 (at node 1)
	maximum = 0.790667 (at node 4)
Accepted packet rate average = 0.198395
	minimum = 0 (at node 0)
	maximum = 0.790667 (at node 8)
Injected flit rate average = 0.198605
	minimum = 0 (at node 1)
	maximum = 0.790667 (at node 4)
Accepted flit rate average= 0.198395
	minimum = 0 (at node 0)
	maximum = 0.790667 (at node 8)
Injected packet length average = 1
Accepted packet length average = 1
Total in-flight flits = 30 (30 measured)
====== Peak Queue Occupancy Statistics (Absolute Max) ======
  Overall Max VC Occupancy = 1
  Overall Max Buffer Occupancy = 2
latency change    = 0.00918492
throughput change = 0.125109
Class 0:
Packet latency average = 13.7229
	minimum = 11
	maximum = 22
	95th percentile = 18.5
	99th percentile = 19.5
Network latency average = 13.7229
	minimum = 11
	maximum = 22
	95th percentile = 18.5
	99th percentile = 19.5
Slowest packet = 24046
Flit latency average = 13.7232
	minimum = 11
	maximum = 22
	95th percentile = 18.5
	99th percentile = 19.5
Slowest flit = 24046
Fragmentation average = 0
	minimum = 0
	maximum = 0
Injected packet rate average = 0.224519
	minimum = 0 (at node 1)
	maximum = 0.793583 (at node 4)
Accepted packet rate average = 0.224204
	minimum = 0 (at node 0)
	maximum = 0.793417 (at node 8)
Injected flit rate average = 0.224519
	minimum = 0 (at node 1)
	maximum = 0.793583 (at node 4)
Accepted flit rate average= 0.224204
	minimum = 0 (at node 0)
	maximum = 0.793417 (at node 8)
Injected packet length average = 1
Accepted packet length average = 1
Total in-flight flits = 47 (47 measured)
====== Peak Queue Occupancy Statistics (Absolute Max) ======
  Overall Max VC Occupancy = 1
  Overall Max Buffer Occupancy = 2
latency change    = 0.0183285
throughput change = 0.115112
Class 0:
Packet latency average = 14.0376
	minimum = 11
	maximum = 23
	95th percentile = 19.5
	99th percentile = 20.5
Network latency average = 14.0376
	minimum = 11
	maximum = 23
	95th percentile = 19.5
	99th percentile = 20.5
Slowest packet = 28363
Flit latency average = 14.0377
	minimum = 11
	maximum = 23
	95th percentile = 19.5
	99th percentile = 20.5
Slowest flit = 28363
Fragmentation average = 0
	minimum = 0
	maximum = 0
Injected packet rate average = 0.248985
	minimum = 0 (at node 1)
	maximum = 0.7948 (at node 4)
Accepted packet rate average = 0.248733
	minimum = 0 (at node 0)
	maximum = 0.795 (at node 8)
Injected flit rate average = 0.248985
	minimum = 0 (at node 1)
	maximum = 0.7948 (at node 4)
Accepted flit rate average= 0.248733
	minimum = 0 (at node 0)
	maximum = 0.795 (at node 8)
Injected packet length average = 1
Accepted packet length average = 1
Total in-flight flits = 47 (47 measured)
====== Peak Queue Occupancy Statistics (Absolute Max) ======
  Overall Max VC Occupancy = 1
  Overall Max Buffer Occupancy = 2
latency change    = 0.02242
throughput change = 0.0986182
Class 0:
Packet latency average = 14.368
	minimum = 11
	maximum = 24
	95th percentile = 19.5
	99th percentile = 20.5
Network latency average = 14.368
	minimum = 11
	maximum = 24
	95th percentile = 19.5
	99th percentile = 20.5
Slowest packet = 40397
Flit latency average = 14.368
	minimum = 11
	maximum = 24
	95th percentile = 19.5
	99th percentile = 20.5
Slowest flit = 40397
Fragmentation average = 0
	minimum = 0
	maximum = 0
Injected packet rate average = 0.274636
	minimum = 0 (at node 1)
	maximum = 0.795333 (at node 4)
Accepted packet rate average = 0.274364
	minimum = 0 (at node 1)
	maximum = 0.795389 (at node 8)
Injected flit rate average = 0.274636
	minimum = 0 (at node 1)
	maximum = 0.795333 (at node 4)
Accepted flit rate average= 0.274364
	minimum = 0 (at node 1)
	maximum = 0.795389 (at node 8)
Injected packet length average = 1
Accepted packet length average = 1
Total in-flight flits = 57 (57 measured)
====== Peak Queue Occupancy Statistics (Absolute Max) ======
  Overall Max VC Occupancy = 1
  Overall Max Buffer Occupancy = 2
latency change    = 0.0229941
throughput change = 0.0934191
Class 0:
Packet latency average = 14.674
	minimum = 11
	maximum = 24
	95th percentile = 19.5
	99th percentile = 20.5
Network latency average = 14.674
	minimum = 11
	maximum = 24
	95th percentile = 19.5
	99th percentile = 20.5
Slowest packet = 40397
Flit latency average = 14.6739
	minimum = 11
	maximum = 24
	95th percentile = 19.5
	99th percentile = 20.5
Slowest flit = 40397
Fragmentation average = 0
	minimum = 0
	maximum = 0
Injected packet rate average = 0.300063
	minimum = 0 (at node 3)
	maximum = 0.796429 (at node 4)
Accepted packet rate average = 0.299788
	minimum = 0 (at node 1)
	maximum = 0.796429 (at node 8)
Injected flit rate average = 0.300063
	minimum = 0 (at node 3)
	maximum = 0.796429 (at node 4)
Accepted flit rate average= 0.299788
	minimum = 0 (at node 1)
	maximum = 0.796429 (at node 8)
Injected packet length average = 1
Accepted packet length average = 1
Total in-flight flits = 65 (65 measured)
====== Peak Queue Occupancy Statistics (Absolute Max) ======
  Overall Max VC Occupancy = 1
  Overall Max Buffer Occupancy = 2
latency change    = 0.0208503
throughput change = 0.084807
Class 0:
Packet latency average = 14.9016
	minimum = 11
	maximum = 25
	95th percentile = 20.5
	99th percentile = 21.5
Network latency average = 14.9016
	minimum = 11
	maximum = 25
	95th percentile = 20.5
	99th percentile = 21.5
Slowest packet = 62395
Flit latency average = 14.9014
	minimum = 11
	maximum = 25
	95th percentile = 20.5
	99th percentile = 21.5
Slowest flit = 62395
Fragmentation average = 0
	minimum = 0
	maximum = 0
Injected packet rate average = 0.324894
	minimum = 0 (at node 3)
	maximum = 0.795917 (at node 4)
Accepted packet rate average = 0.324667
	minimum = 0 (at node 1)
	maximum = 0.795917 (at node 8)
Injected flit rate average = 0.324894
	minimum = 0 (at node 3)
	maximum = 0.795917 (at node 4)
Accepted flit rate average= 0.324667
	minimum = 0 (at node 1)
	maximum = 0.795917 (at node 8)
Injected packet length average = 1
Accepted packet length average = 1
Total in-flight flits = 62 (62 measured)
====== Peak Queue Occupancy Statistics (Absolute Max) ======
  Overall Max VC Occupancy = 1
  Overall Max Buffer Occupancy = 3
latency change    = 0.0152735
throughput change = 0.0766272
Class 0:
Packet latency average = 15.1073
	minimum = 11
	maximum = 26
	95th percentile = 20.5
	99th percentile = 22.5
Network latency average = 15.1073
	minimum = 11
	maximum = 26
	95th percentile = 20.5
	99th percentile = 22.5
Slowest packet = 81511
Flit latency average = 15.1072
	minimum = 11
	maximum = 26
	95th percentile = 20.5
	99th percentile = 22.5
Slowest flit = 81511
Fragmentation average = 0
	minimum = 0
	maximum = 0
Injected packet rate average = 0.349823
	minimum = 0 (at node 3)
	maximum = 0.795593 (at node 4)
Accepted packet rate average = 0.349519
	minimum = 0 (at node 1)
	maximum = 0.795519 (at node 8)
Injected flit rate average = 0.349823
	minimum = 0 (at node 3)
	maximum = 0.795593 (at node 4)
Accepted flit rate average= 0.349519
	minimum = 0 (at node 1)
	maximum = 0.795519 (at node 8)
Injected packet length average = 1
Accepted packet length average = 1
Total in-flight flits = 87 (87 measured)
====== Peak Queue Occupancy Statistics (Absolute Max) ======
  Overall Max VC Occupancy = 1
  Overall Max Buffer Occupancy = 3
latency change    = 0.0136216
throughput change = 0.0711031
Class 0:
Packet latency average = 15.287
	minimum = 11
	maximum = 27
	95th percentile = 20.5
	99th percentile = 22.5
Network latency average = 15.287
	minimum = 11
	maximum = 27
	95th percentile = 20.5
	99th percentile = 22.5
Slowest packet = 96743
Flit latency average = 15.2869
	minimum = 11
	maximum = 27
	95th percentile = 20.5
	99th percentile = 22.5
Slowest flit = 96743
Fragmentation average = 0
	minimum = 0
	maximum = 0
Injected packet rate average = 0.374881
	minimum = 0 (at node 3)
	maximum = 0.795433 (at node 4)
Accepted packet rate average = 0.374604
	minimum = 0 (at node 1)
	maximum = 0.7954 (at node 8)
Injected flit rate average = 0.374881
	minimum = 0 (at node 3)
	maximum = 0.795433 (at node 4)
Accepted flit rate average= 0.374604
	minimum = 0 (at node 1)
	maximum = 0.7954 (at node 8)
Injected packet length average = 1
Accepted packet length average = 1
Total in-flight flits = 88 (88 measured)
====== Peak Queue Occupancy Statistics (Absolute Max) ======
  Overall Max VC Occupancy = 1
  Overall Max Buffer Occupancy = 3
latency change    = 0.0117543
throughput change = 0.0669646
Class 0:
Packet latency average = 15.4467
	minimum = 11
	maximum = 28
	95th percentile = 21.5
	99th percentile = 22.5
Network latency average = 15.4467
	minimum = 11
	maximum = 28
	95th percentile = 21.5
	99th percentile = 22.5
Slowest packet = 110842
Flit latency average = 15.4466
	minimum = 11
	maximum = 28
	95th percentile = 21.5
	99th percentile = 22.5
Slowest flit = 110842
Fragmentation average = 0
	minimum = 0
	maximum = 0
Injected packet rate average = 0.399835
	minimum = 0 (at node 6)
	maximum = 0.797273 (at node 4)
Accepted packet rate average = 0.399599
	minimum = 0 (at node 2)
	maximum = 0.797273 (at node 8)
Injected flit rate average = 0.399835
	minimum = 0 (at node 6)
	maximum = 0.797273 (at node 4)
Accepted flit rate average= 0.399599
	minimum = 0 (at node 2)
	maximum = 0.797273 (at node 8)
Injected packet length average = 1
Accepted packet length average = 1
Total in-flight flits = 83 (83 measured)
====== Peak Queue Occupancy Statistics (Absolute Max) ======
  Overall Max VC Occupancy = 1
  Overall Max Buffer Occupancy = 3
latency change    = 0.010338
throughput change = 0.0625517
Class 0:
Packet latency average = 15.5798
	minimum = 11
	maximum = 29
	95th percentile = 21.5
	99th percentile = 23.5
Network latency average = 15.5798
	minimum = 11
	maximum = 29
	95th percentile = 21.5
	99th percentile = 23.5
Slowest packet = 141153
Flit latency average = 15.5797
	minimum = 11
	maximum = 29
	95th percentile = 21.5
	99th percentile = 23.5
Slowest flit = 141153
Fragmentation average = 0
	minimum = 0
	maximum = 0
Injected packet rate average = 0.424867
	minimum = 0 (at node 6)
	maximum = 0.797889 (at node 4)
Accepted packet rate average = 0.424577
	minimum = 0 (at node 2)
	maximum = 0.797861 (at node 8)
Injected flit rate average = 0.424867
	minimum = 0 (at node 6)
	maximum = 0.797889 (at node 4)
Accepted flit rate average= 0.424577
	minimum = 0 (at node 2)
	maximum = 0.797861 (at node 8)
Injected packet length average = 1
Accepted packet length average = 1
Total in-flight flits = 107 (107 measured)
====== Peak Queue Occupancy Statistics (Absolute Max) ======
  Overall Max VC Occupancy = 1
  Overall Max Buffer Occupancy = 3
latency change    = 0.00854358
throughput change = 0.0588299
Class 0:
Packet latency average = 15.7404
	minimum = 11
	maximum = 29
	95th percentile = 21.5
	99th percentile = 23.5
Network latency average = 15.7404
	minimum = 11
	maximum = 29
	95th percentile = 21.5
	99th percentile = 23.5
Slowest packet = 141153
Flit latency average = 15.7403
	minimum = 11
	maximum = 29
	95th percentile = 21.5
	99th percentile = 23.5
Slowest flit = 141153
Fragmentation average = 0
	minimum = 0
	maximum = 0
Injected packet rate average = 0.449932
	minimum = 0.0265128 (at node 6)
	maximum = 0.79859 (at node 4)
Accepted packet rate average = 0.44963
	minimum = 0.0263077 (at node 2)
	maximum = 0.798641 (at node 8)
Injected flit rate average = 0.449932
	minimum = 0.0265128 (at node 6)
	maximum = 0.79859 (at node 4)
Accepted flit rate average= 0.44963
	minimum = 0.0263077 (at node 2)
	maximum = 0.798641 (at node 8)
Injected packet length average = 1
Accepted packet length average = 1
Total in-flight flits = 119 (119 measured)
====== Peak Queue Occupancy Statistics (Absolute Max) ======
  Overall Max VC Occupancy = 1
  Overall Max Buffer Occupancy = 3
latency change    = 0.010204
throughput change = 0.055718
Class 0:
Packet latency average = 15.9577
	minimum = 11
	maximum = 29
	95th percentile = 22.5
	99th percentile = 24.5
Network latency average = 15.9577
	minimum = 11
	maximum = 29
	95th percentile = 22.5
	99th percentile = 24.5
Slowest packet = 141153
Flit latency average = 15.9575
	minimum = 11
	maximum = 29
	95th percentile = 22.5
	99th percentile = 24.5
Slowest flit = 141153
Fragmentation average = 0
	minimum = 0
	maximum = 0
Injected packet rate average = 0.474881
	minimum = 0.0812381 (at node 6)
	maximum = 0.798095 (at node 4)
Accepted packet rate average = 0.474595
	minimum = 0.0808333 (at node 2)
	maximum = 0.798095 (at node 8)
Injected flit rate average = 0.474881
	minimum = 0.0812381 (at node 6)
	maximum = 0.798095 (at node 4)
Accepted flit rate average= 0.474595
	minimum = 0.0808333 (at node 2)
	maximum = 0.798095 (at node 8)
Injected packet length average = 1
Accepted packet length average = 1
Total in-flight flits = 121 (121 measured)
====== Peak Queue Occupancy Statistics (Absolute Max) ======
  Overall Max VC Occupancy = 1
  Overall Max Buffer Occupancy = 3
latency change    = 0.0136114
throughput change = 0.052604
Class 0:
Packet latency average = 16.1387
	minimum = 11
	maximum = 30
	95th percentile = 22.5
	99th percentile = 24.5
Network latency average = 16.1387
	minimum = 11
	maximum = 30
	95th percentile = 22.5
	99th percentile = 24.5
Slowest packet = 186833
Flit latency average = 16.1386
	minimum = 11
	maximum = 30
	95th percentile = 22.5
	99th percentile = 24.5
Slowest flit = 186833
Fragmentation average = 0
	minimum = 0
	maximum = 0
Injected packet rate average = 0.496647
	minimum = 0.129089 (at node 6)
	maximum = 0.798467 (at node 4)
Accepted packet rate average = 0.49637
	minimum = 0.128689 (at node 2)
	maximum = 0.798422 (at node 8)
Injected flit rate average = 0.496647
	minimum = 0.129089 (at node 6)
	maximum = 0.798467 (at node 4)
Accepted flit rate average= 0.49637
	minimum = 0.128689 (at node 2)
	maximum = 0.798422 (at node 8)
Injected packet length average = 1
Accepted packet length average = 1
Total in-flight flits = 125 (125 measured)
====== Peak Queue Occupancy Statistics (Absolute Max) ======
  Overall Max VC Occupancy = 1
  Overall Max Buffer Occupancy = 3
latency change    = 0.0112205
throughput change = 0.0438687
Class 0:
Packet latency average = 16.2773
	minimum = 11
	maximum = 30
	95th percentile = 22.5
	99th percentile = 24.5
Network latency average = 16.2773
	minimum = 11
	maximum = 30
	95th percentile = 22.5
	99th percentile = 24.5
Slowest packet = 186833
Flit latency average = 16.2771
	minimum = 11
	maximum = 30
	95th percentile = 22.5
	99th percentile = 24.5
Slowest flit = 186833
Fragmentation average = 0
	minimum = 0
	maximum = 0
Injected packet rate average = 0.515574
	minimum = 0.170687 (at node 6)
	maximum = 0.798604 (at node 4)
Accepted packet rate average = 0.515275
	minimum = 0.17025 (at node 2)
	maximum = 0.798604 (at node 8)
Injected flit rate average = 0.515574
	minimum = 0.170687 (at node 6)
	maximum = 0.798604 (at node 4)
Accepted flit rate average= 0.515275
	minimum = 0.17025 (at node 2)
	maximum = 0.798604 (at node 8)
Injected packet length average = 1
Accepted packet length average = 1
Total in-flight flits = 142 (142 measured)
====== Peak Queue Occupancy Statistics (Absolute Max) ======
  Overall Max VC Occupancy = 1
  Overall Max Buffer Occupancy = 3
latency change    = 0.00850974
throughput change = 0.0366893
Class 0:
Packet latency average = 16.4025
	minimum = 11
	maximum = 30
	95th percentile = 23.5
	99th percentile = 24.5
Network latency average = 16.4025
	minimum = 11
	maximum = 30
	95th percentile = 23.5
	99th percentile = 24.5
Slowest packet = 186833
Flit latency average = 16.4024
	minimum = 11
	maximum = 30
	95th percentile = 23.5
	99th percentile = 24.5
Slowest flit = 186833
Fragmentation average = 0
	minimum = 0
	maximum = 0
Injected packet rate average = 0.532468
	minimum = 0.207373 (at node 6)
	maximum = 0.798373 (at node 4)
Accepted packet rate average = 0.532203
	minimum = 0.207039 (at node 2)
	maximum = 0.798373 (at node 8)
Injected flit rate average = 0.532468
	minimum = 0.207373 (at node 6)
	maximum = 0.798373 (at node 4)
Accepted flit rate average= 0.532203
	minimum = 0.207039 (at node 2)
	maximum = 0.798373 (at node 8)
Injected packet length average = 1
Accepted packet length average = 1
Total in-flight flits = 135 (135 measured)
====== Peak Queue Occupancy Statistics (Absolute Max) ======
  Overall Max VC Occupancy = 1
  Overall Max Buffer Occupancy = 3
latency change    = 0.00763875
throughput change = 0.0318058
Draining all recorded packets ...
Draining remaining packets ...
Time taken is 57049 cycles
====== Overall Traffic Statistics ======
====== Traffic class 0 ======
Packet latency average = 16.404 (1 samples)
	minimum = 11 (1 samples)
	maximum = 30 (1 samples)
Network latency average = 16.404 (1 samples)
	minimum = 11 (1 samples)
	maximum = 30 (1 samples)
Flit latency average = 16.405 (1 samples)
	minimum = 11 (1 samples)
	maximum = 30 (1 samples)
Fragmentation average = 0 (1 samples)
	minimum = 0 (1 samples)
	maximum = 0 (1 samples)
Injected packet rate average = 0.532468 (1 samples)
	minimum = 0.207373 (1 samples)
	maximum = 0.798373 (1 samples)
Accepted packet rate average = 0.532203 (1 samples)
	minimum = 0.207039 (1 samples)
	maximum = 0.798373 (1 samples)
Injected flit rate average = 0.532468 (1 samples)
	minimum = 0.207373 (1 samples)
	maximum = 0.798373 (1 samples)
Accepted flit rate average = 0.532203 (1 samples)
	minimum = 0.207039 (1 samples)
	maximum = 0.798373 (1 samples)
Injected packet size average = 1 (1 samples)
Accepted packet size average = 1 (1 samples)
Hops average = 4.05087 (1 samples)
Total run time 8.7765

