BEGIN Configuration File: D:\noc_huawei\noc\booksim2-noc_speedup_study\booksim2-noc_speedup_study\tests\data\results\fixed_perm_growth_models_perm_4_3_6_1_8_7_2_5_0_peak_0p8_current_defaults\tmp_configs\ordered_fill_racke_tree_s2205.config
num_vcs     = 48;
vc_buf_size = 16;
wait_for_tail_credit = 1;

vc_allocator = islip;
sw_allocator = islip;
alloc_iters  = 16;

credit_delay   = 2;
routing_delay  = 0;
vc_alloc_delay = 1;
sw_alloc_delay = 1;
st_final_delay = 1;

input_speedup     = 1;
output_speedup    = 1;
internal_speedup  = 2.0;

sim_type = latency;
latency_thres  = 100000.0;
sim_count      = 1;
queue_sample_period_cycles = 0;

topology = mesh;
k  = 3;
n  = 2;

hybrid_transition_mode = linear_prob;
hybrid_xy_low_threshold = 0.35;
hybrid_racke_high_threshold = 0.65;
hybrid_buffer_soft_threshold = 0.50;
hybrid_buffer_hard_threshold = 0.85;
hybrid_buffer_release_threshold = 0.35;
hybrid_rate_soft_threshold = 0.55;
hybrid_rate_hard_threshold = 0.90;
hybrid_rate_weight = 0.25;
hybrid_congestion_alpha = 0.25;
hybrid_racke_increase_step = 0.25;
hybrid_racke_decrease_step = 0.10;
hybrid_epoch_cycles = 200;
hybrid_hold_cycles = 600;
hybrid_enable_midflight_override = 1;
hybrid_feedback_delay_per_hop = 1;
hybrid_flow_increase_step = 0.20;
hybrid_flow_decrease_step = 0.08;
hybrid_flow_hard_threshold = 0.95;

packet_size = 1;

scheduled_injection_rates = {0.10,0.20,0.30};
scheduled_phase_cycles = {1000,1000,1000};
scheduled_default_phase_cycles = 1000;

custom_perm_array = {4,3,6,1,8,7,2,5,0};
warmup_periods = 2;
seed = 2205;
hybrid_flow_hotspot_alpha = 0.85;
injection_process = ordered_fill;
perm_seed = 2205;
ordered_injection_phase_cycles = {3000,3000,3000,3000,3000,3000,3000,3000,3000,3000,3000,3000,3000,3000,3000,3000,3000,3000};
routing_function = racke_tree;
injection_rate = 0.8;
max_samples = 26;
ordered_injection_source_order = {4,0,7,2,8,1,5,3,6};
hybrid_flow_hotspot_threshold = 1.1;
ordered_injection_flow_peak_rate = 0.8;
ordered_injection_coefficients = {0.0625,0.125,0.1875,0.25,0.3125,0.375,0.4375,0.5,0.5625,0.625,0.6875,0.75,0.8125,0.875,0.9375,1.0,1.0,1.0};
hybrid_stats_window_cycles = 3000;
traffic = custom_perm;
sample_period = 3000;

END Configuration File: D:\noc_huawei\noc\booksim2-noc_speedup_study\booksim2-noc_speedup_study\tests\data\results\fixed_perm_growth_models_perm_4_3_6_1_8_7_2_5_0_peak_0p8_current_defaults\tmp_configs\ordered_fill_racke_tree_s2205.config
Class 0:
Packet latency average = 13.2526
	minimum = 11
	maximum = 19
	95th percentile = 18.5
	99th percentile = 18.5
Network latency average = 13.2526
	minimum = 11
	maximum = 19
	95th percentile = 18.5
	99th percentile = 18.5
Slowest packet = 55
Flit latency average = 13.2526
	minimum = 11
	maximum = 19
	95th percentile = 18.5
	99th percentile = 18.5
Slowest flit = 55
Fragmentation average = 0
	minimum = 0
	maximum = 0
Injected packet rate average = 0.0501481
	minimum = 0 (at node 0)
	maximum = 0.451333 (at node 4)
Accepted packet rate average = 0.05
	minimum = 0 (at node 0)
	maximum = 0.45 (at node 8)
Injected flit rate average = 0.0501481
	minimum = 0 (at node 0)
	maximum = 0.451333 (at node 4)
Accepted flit rate average= 0.05
	minimum = 0 (at node 0)
	maximum = 0.45 (at node 8)
Injected packet length average = 1
Accepted packet length average = 1
Total in-flight flits = 4 (0 measured)
====== Peak Queue Occupancy Statistics (Absolute Max) ======
  Overall Max VC Occupancy = 1
  Overall Max Buffer Occupancy = 2
latency change    = 1
throughput change = 1
Class 0:
Packet latency average = 13.2498
	minimum = 11
	maximum = 19
	95th percentile = 18.5
	99th percentile = 19.5
Network latency average = 13.2498
	minimum = 11
	maximum = 19
	95th percentile = 18.5
	99th percentile = 19.5
Slowest packet = 55
Flit latency average = 13.2498
	minimum = 11
	maximum = 19
	95th percentile = 18.5
	99th percentile = 19.5
Slowest flit = 55
Fragmentation average = 0
	minimum = 0
	maximum = 0
Injected packet rate average = 0.0742593
	minimum = 0 (at node 1)
	maximum = 0.619167 (at node 4)
Accepted packet rate average = 0.0740556
	minimum = 0 (at node 0)
	maximum = 0.6175 (at node 8)
Injected flit rate average = 0.0742593
	minimum = 0 (at node 1)
	maximum = 0.619167 (at node 4)
Accepted flit rate average= 0.0740556
	minimum = 0 (at node 0)
	maximum = 0.6175 (at node 8)
Injected packet length average = 1
Accepted packet length average = 1
Total in-flight flits = 11 (0 measured)
====== Peak Queue Occupancy Statistics (Absolute Max) ======
  Overall Max VC Occupancy = 1
  Overall Max Buffer Occupancy = 2
latency change    = 0.000209825
throughput change = 0.324831
Warmed up ...Time used is 6000 cycles
Class 0:
Packet latency average = 13.2994
	minimum = 11
	maximum = 20
	95th percentile = 18.5
	99th percentile = 19.5
Network latency average = 13.2994
	minimum = 11
	maximum = 20
	95th percentile = 18.5
	99th percentile = 19.5
Slowest packet = 6739
Flit latency average = 13.3025
	minimum = 11
	maximum = 20
	95th percentile = 18.5
	99th percentile = 19.5
Slowest flit = 6739
Fragmentation average = 0
	minimum = 0
	maximum = 0
Injected packet rate average = 0.149778
	minimum = 0 (at node 1)
	maximum = 0.803 (at node 4)
Accepted packet rate average = 0.14937
	minimum = 0 (at node 0)
	maximum = 0.802333 (at node 8)
Injected flit rate average = 0.149778
	minimum = 0 (at node 1)
	maximum = 0.803 (at node 4)
Accepted flit rate average= 0.14937
	minimum = 0 (at node 0)
	maximum = 0.802333 (at node 8)
Injected packet length average = 1
Accepted packet length average = 1
Total in-flight flits = 22 (22 measured)
====== Peak Queue Occupancy Statistics (Absolute Max) ======
  Overall Max VC Occupancy = 1
  Overall Max Buffer Occupancy = 2
latency change    = 0.00372508
throughput change = 0.504215
Class 0:
Packet latency average = 13.335
	minimum = 11
	maximum = 21
	95th percentile = 18.5
	99th percentile = 19.5
Network latency average = 13.335
	minimum = 11
	maximum = 21
	95th percentile = 18.5
	99th percentile = 19.5
Slowest packet = 11255
Flit latency average = 13.3363
	minimum = 11
	maximum = 21
	95th percentile = 18.5
	99th percentile = 19.5
Slowest flit = 11255
Fragmentation average = 0
	minimum = 0
	maximum = 0
Injected packet rate average = 0.174352
	minimum = 0 (at node 1)
	maximum = 0.799167 (at node 4)
Accepted packet rate average = 0.174148
	minimum = 0 (at node 0)
	maximum = 0.799667 (at node 8)
Injected flit rate average = 0.174352
	minimum = 0 (at node 1)
	maximum = 0.799167 (at node 4)
Accepted flit rate average= 0.174148
	minimum = 0 (at node 0)
	maximum = 0.799667 (at node 8)
Injected packet length average = 1
Accepted packet length average = 1
Total in-flight flits = 22 (22 measured)
====== Peak Queue Occupancy Statistics (Absolute Max) ======
  Overall Max VC Occupancy = 1
  Overall Max Buffer Occupancy = 2
latency change    = 0.0026759
throughput change = 0.14228
Class 0:
Packet latency average = 13.4598
	minimum = 11
	maximum = 22
	95th percentile = 18.5
	99th percentile = 19.5
Network latency average = 13.4598
	minimum = 11
	maximum = 22
	95th percentile = 18.5
	99th percentile = 19.5
Slowest packet = 15911
Flit latency average = 13.4605
	minimum = 11
	maximum = 22
	95th percentile = 18.5
	99th percentile = 19.5
Slowest flit = 15911
Fragmentation average = 0
	minimum = 0
	maximum = 0
Injected packet rate average = 0.198988
	minimum = 0 (at node 1)
	maximum = 0.798889 (at node 4)
Accepted packet rate average = 0.198728
	minimum = 0 (at node 0)
	maximum = 0.798556 (at node 8)
Injected flit rate average = 0.198988
	minimum = 0 (at node 1)
	maximum = 0.798889 (at node 4)
Accepted flit rate average= 0.198728
	minimum = 0 (at node 0)
	maximum = 0.798556 (at node 8)
Injected packet length average = 1
Accepted packet length average = 1
Total in-flight flits = 32 (32 measured)
====== Peak Queue Occupancy Statistics (Absolute Max) ======
  Overall Max VC Occupancy = 1
  Overall Max Buffer Occupancy = 2
latency change    = 0.00926776
throughput change = 0.123688
Class 0:
Packet latency average = 13.7163
	minimum = 11
	maximum = 22
	95th percentile = 18.5
	99th percentile = 19.5
Network latency average = 13.7163
	minimum = 11
	maximum = 22
	95th percentile = 18.5
	99th percentile = 19.5
Slowest packet = 15911
Flit latency average = 13.7166
	minimum = 11
	maximum = 22
	95th percentile = 18.5
	99th percentile = 19.5
Slowest flit = 15911
Fragmentation average = 0
	minimum = 0
	maximum = 0
Injected packet rate average = 0.224713
	minimum = 0 (at node 1)
	maximum = 0.800833 (at node 4)
Accepted packet rate average = 0.224454
	minimum = 0 (at node 0)
	maximum = 0.80075 (at node 8)
Injected flit rate average = 0.224713
	minimum = 0 (at node 1)
	maximum = 0.800833 (at node 4)
Accepted flit rate average= 0.224454
	minimum = 0 (at node 0)
	maximum = 0.80075 (at node 8)
Injected packet length average = 1
Accepted packet length average = 1
Total in-flight flits = 39 (39 measured)
====== Peak Queue Occupancy Statistics (Absolute Max) ======
  Overall Max VC Occupancy = 1
  Overall Max Buffer Occupancy = 2
latency change    = 0.0186991
throughput change = 0.114613
Class 0:
Packet latency average = 14.0472
	minimum = 11
	maximum = 23
	95th percentile = 19.5
	99th percentile = 20.5
Network latency average = 14.0472
	minimum = 11
	maximum = 23
	95th percentile = 19.5
	99th percentile = 20.5
Slowest packet = 28672
Flit latency average = 14.0473
	minimum = 11
	maximum = 23
	95th percentile = 19.5
	99th percentile = 20.5
Slowest flit = 28672
Fragmentation average = 0
	minimum = 0
	maximum = 0
Injected packet rate average = 0.250126
	minimum = 0 (at node 1)
	maximum = 0.800867 (at node 4)
Accepted packet rate average = 0.249867
	minimum = 0 (at node 0)
	maximum = 0.800867 (at node 8)
Injected flit rate average = 0.250126
	minimum = 0 (at node 1)
	maximum = 0.800867 (at node 4)
Accepted flit rate average= 0.249867
	minimum = 0 (at node 0)
	maximum = 0.800867 (at node 8)
Injected packet length average = 1
Accepted packet length average = 1
Total in-flight flits = 46 (46 measured)
====== Peak Queue Occupancy Statistics (Absolute Max) ======
  Overall Max VC Occupancy = 1
  Overall Max Buffer Occupancy = 2
latency change    = 0.0235578
throughput change = 0.101706
Class 0:
Packet latency average = 14.3627
	minimum = 11
	maximum = 24
	95th percentile = 19.5
	99th percentile = 20.5
Network latency average = 14.3627
	minimum = 11
	maximum = 24
	95th percentile = 19.5
	99th percentile = 20.5
Slowest packet = 37807
Flit latency average = 14.3628
	minimum = 11
	maximum = 24
	95th percentile = 19.5
	99th percentile = 20.5
Slowest flit = 37807
Fragmentation average = 0
	minimum = 0
	maximum = 0
Injected packet rate average = 0.27508
	minimum = 0 (at node 1)
	maximum = 0.800222 (at node 4)
Accepted packet rate average = 0.274809
	minimum = 0 (at node 1)
	maximum = 0.800167 (at node 8)
Injected flit rate average = 0.27508
	minimum = 0 (at node 1)
	maximum = 0.800222 (at node 4)
Accepted flit rate average= 0.274809
	minimum = 0 (at node 1)
	maximum = 0.800167 (at node 8)
Injected packet length average = 1
Accepted packet length average = 1
Total in-flight flits = 55 (55 measured)
====== Peak Queue Occupancy Statistics (Absolute Max) ======
  Overall Max VC Occupancy = 1
  Overall Max Buffer Occupancy = 2
latency change    = 0.0219709
throughput change = 0.0907612
Class 0:
Packet latency average = 14.6537
	minimum = 11
	maximum = 24
	95th percentile = 19.5
	99th percentile = 20.5
Network latency average = 14.6537
	minimum = 11
	maximum = 24
	95th percentile = 19.5
	99th percentile = 20.5
Slowest packet = 37807
Flit latency average = 14.6537
	minimum = 11
	maximum = 24
	95th percentile = 19.5
	99th percentile = 20.5
Slowest flit = 37807
Fragmentation average = 0
	minimum = 0
	maximum = 0
Injected packet rate average = 0.299968
	minimum = 0 (at node 3)
	maximum = 0.80081 (at node 4)
Accepted packet rate average = 0.299714
	minimum = 0 (at node 1)
	maximum = 0.800714 (at node 8)
Injected flit rate average = 0.299968
	minimum = 0 (at node 3)
	maximum = 0.80081 (at node 4)
Accepted flit rate average= 0.299714
	minimum = 0 (at node 1)
	maximum = 0.800714 (at node 8)
Injected packet length average = 1
Accepted packet length average = 1
Total in-flight flits = 59 (59 measured)
====== Peak Queue Occupancy Statistics (Absolute Max) ======
  Overall Max VC Occupancy = 1
  Overall Max Buffer Occupancy = 2
latency change    = 0.0198563
throughput change = 0.083098
Class 0:
Packet latency average = 14.8853
	minimum = 11
	maximum = 26
	95th percentile = 19.5
	99th percentile = 21.5
Network latency average = 14.8853
	minimum = 11
	maximum = 26
	95th percentile = 19.5
	99th percentile = 21.5
Slowest packet = 69618
Flit latency average = 14.8852
	minimum = 11
	maximum = 26
	95th percentile = 19.5
	99th percentile = 21.5
Slowest flit = 69618
Fragmentation average = 0
	minimum = 0
	maximum = 0
Injected packet rate average = 0.325009
	minimum = 0 (at node 3)
	maximum = 0.800125 (at node 4)
Accepted packet rate average = 0.324713
	minimum = 0 (at node 1)
	maximum = 0.800083 (at node 8)
Injected flit rate average = 0.325009
	minimum = 0 (at node 3)
	maximum = 0.800125 (at node 4)
Accepted flit rate average= 0.324713
	minimum = 0 (at node 1)
	maximum = 0.800083 (at node 8)
Injected packet length average = 1
Accepted packet length average = 1
Total in-flight flits = 75 (75 measured)
====== Peak Queue Occupancy Statistics (Absolute Max) ======
  Overall Max VC Occupancy = 1
  Overall Max Buffer Occupancy = 3
latency change    = 0.0155568
throughput change = 0.076987
Class 0:
Packet latency average = 15.0909
	minimum = 11
	maximum = 27
	95th percentile = 20.5
	99th percentile = 22.5
Network latency average = 15.0909
	minimum = 11
	maximum = 27
	95th percentile = 20.5
	99th percentile = 22.5
Slowest packet = 75356
Flit latency average = 15.0909
	minimum = 11
	maximum = 27
	95th percentile = 20.5
	99th percentile = 22.5
Slowest flit = 75356
Fragmentation average = 0
	minimum = 0
	maximum = 0
Injected packet rate average = 0.349926
	minimum = 0 (at node 3)
	maximum = 0.800111 (at node 4)
Accepted packet rate average = 0.349671
	minimum = 0 (at node 1)
	maximum = 0.800037 (at node 8)
Injected flit rate average = 0.349926
	minimum = 0 (at node 3)
	maximum = 0.800111 (at node 4)
Accepted flit rate average= 0.349671
	minimum = 0 (at node 1)
	maximum = 0.800037 (at node 8)
Injected packet length average = 1
Accepted packet length average = 1
Total in-flight flits = 73 (73 measured)
====== Peak Queue Occupancy Statistics (Absolute Max) ======
  Overall Max VC Occupancy = 1
  Overall Max Buffer Occupancy = 3
latency change    = 0.0136279
throughput change = 0.0713752
Class 0:
Packet latency average = 15.2825
	minimum = 11
	maximum = 27
	95th percentile = 20.5
	99th percentile = 22.5
Network latency average = 15.2825
	minimum = 11
	maximum = 27
	95th percentile = 20.5
	99th percentile = 22.5
Slowest packet = 75356
Flit latency average = 15.2824
	minimum = 11
	maximum = 27
	95th percentile = 20.5
	99th percentile = 22.5
Slowest flit = 75356
Fragmentation average = 0
	minimum = 0
	maximum = 0
Injected packet rate average = 0.375096
	minimum = 0 (at node 3)
	maximum = 0.799767 (at node 4)
Accepted packet rate average = 0.374807
	minimum = 0 (at node 1)
	maximum = 0.799733 (at node 8)
Injected flit rate average = 0.375096
	minimum = 0 (at node 3)
	maximum = 0.799767 (at node 4)
Accepted flit rate average= 0.374807
	minimum = 0 (at node 1)
	maximum = 0.799733 (at node 8)
Injected packet length average = 1
Accepted packet length average = 1
Total in-flight flits = 89 (89 measured)
====== Peak Queue Occupancy Statistics (Absolute Max) ======
  Overall Max VC Occupancy = 1
  Overall Max Buffer Occupancy = 3
latency change    = 0.0125364
throughput change = 0.0670654
Class 0:
Packet latency average = 15.4505
	minimum = 11
	maximum = 31
	95th percentile = 21.5
	99th percentile = 23.5
Network latency average = 15.4505
	minimum = 11
	maximum = 31
	95th percentile = 21.5
	99th percentile = 23.5
Slowest packet = 119772
Flit latency average = 15.4504
	minimum = 11
	maximum = 31
	95th percentile = 21.5
	99th percentile = 23.5
Slowest flit = 119772
Fragmentation average = 0
	minimum = 0
	maximum = 0
Injected packet rate average = 0.400125
	minimum = 0 (at node 6)
	maximum = 0.800485 (at node 4)
Accepted packet rate average = 0.399835
	minimum = 0 (at node 2)
	maximum = 0.800455 (at node 8)
Injected flit rate average = 0.400125
	minimum = 0 (at node 6)
	maximum = 0.800485 (at node 4)
Accepted flit rate average= 0.399835
	minimum = 0 (at node 2)
	maximum = 0.800455 (at node 8)
Injected packet length average = 1
Accepted packet length average = 1
Total in-flight flits = 97 (97 measured)
====== Peak Queue Occupancy Statistics (Absolute Max) ======
  Overall Max VC Occupancy = 1
  Overall Max Buffer Occupancy = 3
latency change    = 0.010871
throughput change = 0.0625948
Class 0:
Packet latency average = 15.5745
	minimum = 11
	maximum = 31
	95th percentile = 21.5
	99th percentile = 23.5
Network latency average = 15.5745
	minimum = 11
	maximum = 31
	95th percentile = 21.5
	99th percentile = 23.5
Slowest packet = 119772
Flit latency average = 15.5744
	minimum = 11
	maximum = 31
	95th percentile = 21.5
	99th percentile = 23.5
Slowest flit = 119772
Fragmentation average = 0
	minimum = 0
	maximum = 0
Injected packet rate average = 0.425071
	minimum = 0 (at node 6)
	maximum = 0.801639 (at node 4)
Accepted packet rate average = 0.424781
	minimum = 0 (at node 2)
	maximum = 0.801611 (at node 8)
Injected flit rate average = 0.425071
	minimum = 0 (at node 6)
	maximum = 0.801639 (at node 4)
Accepted flit rate average= 0.424781
	minimum = 0 (at node 2)
	maximum = 0.801611 (at node 8)
Injected packet length average = 1
Accepted packet length average = 1
Total in-flight flits = 105 (105 measured)
====== Peak Queue Occupancy Statistics (Absolute Max) ======
  Overall Max VC Occupancy = 1
  Overall Max Buffer Occupancy = 3
latency change    = 0.00796269
throughput change = 0.0587264
Class 0:
Packet latency average = 15.7254
	minimum = 11
	maximum = 31
	95th percentile = 21.5
	99th percentile = 23.5
Network latency average = 15.7254
	minimum = 11
	maximum = 31
	95th percentile = 21.5
	99th percentile = 23.5
Slowest packet = 119772
Flit latency average = 15.7253
	minimum = 11
	maximum = 31
	95th percentile = 21.5
	99th percentile = 23.5
Slowest flit = 119772
Fragmentation average = 0
	minimum = 0
	maximum = 0
Injected packet rate average = 0.450114
	minimum = 0.0268974 (at node 6)
	maximum = 0.802128 (at node 4)
Accepted packet rate average = 0.44984
	minimum = 0.0267436 (at node 2)
	maximum = 0.802077 (at node 8)
Injected flit rate average = 0.450114
	minimum = 0.0268974 (at node 6)
	maximum = 0.802128 (at node 4)
Accepted flit rate average= 0.44984
	minimum = 0.0267436 (at node 2)
	maximum = 0.802077 (at node 8)
Injected packet length average = 1
Accepted packet length average = 1
Total in-flight flits = 107 (107 measured)
====== Peak Queue Occupancy Statistics (Absolute Max) ======
  Overall Max VC Occupancy = 1
  Overall Max Buffer Occupancy = 3
latency change    = 0.0095948
throughput change = 0.0557077
Class 0:
Packet latency average = 15.9486
	minimum = 11
	maximum = 31
	95th percentile = 22.5
	99th percentile = 24.5
Network latency average = 15.9486
	minimum = 11
	maximum = 31
	95th percentile = 22.5
	99th percentile = 24.5
Slowest packet = 119772
Flit latency average = 15.9485
	minimum = 11
	maximum = 31
	95th percentile = 22.5
	99th percentile = 24.5
Slowest flit = 119772
Fragmentation average = 0
	minimum = 0
	maximum = 0
Injected packet rate average = 0.475003
	minimum = 0.0810952 (at node 6)
	maximum = 0.801833 (at node 4)
Accepted packet rate average = 0.474709
	minimum = 0.0807143 (at node 2)
	maximum = 0.80181 (at node 8)
Injected flit rate average = 0.475003
	minimum = 0.0810952 (at node 6)
	maximum = 0.801833 (at node 4)
Accepted flit rate average= 0.474709
	minimum = 0.0807143 (at node 2)
	maximum = 0.80181 (at node 8)
Injected packet length average = 1
Accepted packet length average = 1
Total in-flight flits = 122 (122 measured)
====== Peak Queue Occupancy Statistics (Absolute Max) ======
  Overall Max VC Occupancy = 1
  Overall Max Buffer Occupancy = 3
latency change    = 0.0139944
throughput change = 0.0523869
Class 0:
Packet latency average = 16.125
	minimum = 11
	maximum = 31
	95th percentile = 22.5
	99th percentile = 24.5
Network latency average = 16.125
	minimum = 11
	maximum = 31
	95th percentile = 22.5
	99th percentile = 24.5
Slowest packet = 119772
Flit latency average = 16.1249
	minimum = 11
	maximum = 31
	95th percentile = 22.5
	99th percentile = 24.5
Slowest flit = 119772
Fragmentation average = 0
	minimum = 0
	maximum = 0
Injected packet rate average = 0.4968
	minimum = 0.129778 (at node 6)
	maximum = 0.801689 (at node 4)
Accepted packet rate average = 0.496531
	minimum = 0.1294 (at node 2)
	maximum = 0.801667 (at node 8)
Injected flit rate average = 0.4968
	minimum = 0.129778 (at node 6)
	maximum = 0.801689 (at node 4)
Accepted flit rate average= 0.496531
	minimum = 0.1294 (at node 2)
	maximum = 0.801667 (at node 8)
Injected packet length average = 1
Accepted packet length average = 1
Total in-flight flits = 120 (120 measured)
====== Peak Queue Occupancy Statistics (Absolute Max) ======
  Overall Max VC Occupancy = 1
  Overall Max Buffer Occupancy = 3
latency change    = 0.0109384
throughput change = 0.0439487
Class 0:
Packet latency average = 16.2639
	minimum = 11
	maximum = 31
	95th percentile = 22.5
	99th percentile = 24.5
Network latency average = 16.2639
	minimum = 11
	maximum = 31
	95th percentile = 22.5
	99th percentile = 24.5
Slowest packet = 119772
Flit latency average = 16.2639
	minimum = 11
	maximum = 31
	95th percentile = 22.5
	99th percentile = 24.5
Slowest flit = 119772
Fragmentation average = 0
	minimum = 0
	maximum = 0
Injected packet rate average = 0.515563
	minimum = 0.170729 (at node 6)
	maximum = 0.801729 (at node 4)
Accepted packet rate average = 0.515324
	minimum = 0.170437 (at node 2)
	maximum = 0.801708 (at node 8)
Injected flit rate average = 0.515563
	minimum = 0.170729 (at node 6)
	maximum = 0.801729 (at node 4)
Accepted flit rate average= 0.515324
	minimum = 0.170437 (at node 2)
	maximum = 0.801708 (at node 8)
Injected packet length average = 1
Accepted packet length average = 1
Total in-flight flits = 114 (114 measured)
====== Peak Queue Occupancy Statistics (Absolute Max) ======
  Overall Max VC Occupancy = 1
  Overall Max Buffer Occupancy = 3
latency change    = 0.00854586
throughput change = 0.0364687
Class 0:
Packet latency average = 16.379
	minimum = 11
	maximum = 31
	95th percentile = 22.5
	99th percentile = 24.5
Network latency average = 16.379
	minimum = 11
	maximum = 31
	95th percentile = 22.5
	99th percentile = 24.5
Slowest packet = 119772
Flit latency average = 16.3789
	minimum = 11
	maximum = 31
	95th percentile = 22.5
	99th percentile = 24.5
Slowest flit = 119772
Fragmentation average = 0
	minimum = 0
	maximum = 0
Injected packet rate average = 0.532261
	minimum = 0.208451 (at node 6)
	maximum = 0.800804 (at node 4)
Accepted packet rate average = 0.532026
	minimum = 0.208118 (at node 2)
	maximum = 0.800784 (at node 8)
Injected flit rate average = 0.532261
	minimum = 0.208451 (at node 6)
	maximum = 0.800804 (at node 4)
Accepted flit rate average= 0.532026
	minimum = 0.208118 (at node 2)
	maximum = 0.800784 (at node 8)
Injected packet length average = 1
Accepted packet length average = 1
Total in-flight flits = 119 (119 measured)
====== Peak Queue Occupancy Statistics (Absolute Max) ======
  Overall Max VC Occupancy = 1
  Overall Max Buffer Occupancy = 3
latency change    = 0.00702525
throughput change = 0.0313933
Draining all recorded packets ...
Draining remaining packets ...
Time taken is 57048 cycles
====== Overall Traffic Statistics ======
====== Traffic class 0 ======
Packet latency average = 16.3799 (1 samples)
	minimum = 11 (1 samples)
	maximum = 31 (1 samples)
Network latency average = 16.3799 (1 samples)
	minimum = 11 (1 samples)
	maximum = 31 (1 samples)
Flit latency average = 16.3804 (1 samples)
	minimum = 11 (1 samples)
	maximum = 31 (1 samples)
Fragmentation average = 0 (1 samples)
	minimum = 0 (1 samples)
	maximum = 0 (1 samples)
Injected packet rate average = 0.532261 (1 samples)
	minimum = 0.208451 (1 samples)
	maximum = 0.800804 (1 samples)
Accepted packet rate average = 0.532026 (1 samples)
	minimum = 0.208118 (1 samples)
	maximum = 0.800784 (1 samples)
Injected flit rate average = 0.532261 (1 samples)
	minimum = 0.208451 (1 samples)
	maximum = 0.800804 (1 samples)
Accepted flit rate average = 0.532026 (1 samples)
	minimum = 0.208118 (1 samples)
	maximum = 0.800784 (1 samples)
Injected packet size average = 1 (1 samples)
Accepted packet size average = 1 (1 samples)
Hops average = 4.05001 (1 samples)
Total run time 8.88794

