BEGIN Configuration File: D:\noc_huawei\noc\booksim2-noc_speedup_study\booksim2-noc_speedup_study\tests\data\results\fixed_perm_growth_models_perm_4_3_6_1_8_7_2_5_0_peak_0p6_current_defaults\tmp_configs\linear_scale_dim_order_s2201.config
num_vcs     = 48;
vc_buf_size = 16;
wait_for_tail_credit = 1;

vc_allocator = islip;
sw_allocator = islip;
alloc_iters  = 16;

credit_delay   = 2;
routing_delay  = 0;
vc_alloc_delay = 1;
sw_alloc_delay = 1;
st_final_delay = 1;

input_speedup     = 1;
output_speedup    = 1;
internal_speedup  = 2.0;

sim_type = latency;
latency_thres  = 100000.0;
sim_count      = 1;
queue_sample_period_cycles = 0;

topology = mesh;
k  = 3;
n  = 2;

hybrid_transition_mode = linear_prob;
hybrid_xy_low_threshold = 0.35;
hybrid_racke_high_threshold = 0.65;
hybrid_buffer_soft_threshold = 0.50;
hybrid_buffer_hard_threshold = 0.85;
hybrid_buffer_release_threshold = 0.35;
hybrid_rate_soft_threshold = 0.55;
hybrid_rate_hard_threshold = 0.90;
hybrid_rate_weight = 0.25;
hybrid_congestion_alpha = 0.25;
hybrid_racke_increase_step = 0.25;
hybrid_racke_decrease_step = 0.10;
hybrid_epoch_cycles = 200;
hybrid_hold_cycles = 600;
hybrid_enable_midflight_override = 1;
hybrid_feedback_delay_per_hop = 1;
hybrid_flow_increase_step = 0.20;
hybrid_flow_decrease_step = 0.08;
hybrid_flow_hard_threshold = 0.95;

packet_size = 1;


ordered_injection_coefficients = {0.1666666667,0.3333333333,0.5};
ordered_injection_phase_cycles = {1000,1000,1000};
ordered_injection_source_order = {4,0,7,2,8,1,5,3,6};
ordered_injection_flow_peak_rate = 0.60;
warmup_periods = 2;
custom_perm_array = {4,3,6,1,8,7,2,5,0};
injection_process = scheduled;
injection_rate = 0.6;
scheduled_default_phase_cycles = 3000;
perm_seed = 2201;
hybrid_flow_hotspot_alpha = 0.85;
hybrid_stats_window_cycles = 3000;
hybrid_flow_hotspot_threshold = 1.1;
sample_period = 3000;
scheduled_injection_rates = {0.05,0.1,0.15,0.2,0.25,0.3,0.35,0.4,0.45,0.5,0.55,0.6,0.6,0.6};
traffic = custom_perm;
routing_function = dim_order;
scheduled_phase_cycles = {3000,3000,3000,3000,3000,3000,3000,3000,3000,3000,3000,3000,3000,3000};
seed = 2201;
max_samples = 22;

END Configuration File: D:\noc_huawei\noc\booksim2-noc_speedup_study\booksim2-noc_speedup_study\tests\data\results\fixed_perm_growth_models_perm_4_3_6_1_8_7_2_5_0_peak_0p6_current_defaults\tmp_configs\linear_scale_dim_order_s2201.config
Class 0:
Packet latency average = 13.0523
	minimum = 11
	maximum = 18
	95th percentile = 17.5
	99th percentile = 17.5
Network latency average = 13.0523
	minimum = 11
	maximum = 18
	95th percentile = 17.5
	99th percentile = 17.5
Slowest packet = 269
Flit latency average = 13.0523
	minimum = 11
	maximum = 18
	95th percentile = 17.5
	99th percentile = 17.5
Slowest flit = 269
Fragmentation average = 0
	minimum = 0
	maximum = 0
Injected packet rate average = 0.0482963
	minimum = 0.044 (at node 4)
	maximum = 0.054 (at node 6)
Accepted packet rate average = 0.0481111
	minimum = 0.0436667 (at node 8)
	maximum = 0.054 (at node 2)
Injected flit rate average = 0.0482963
	minimum = 0.044 (at node 4)
	maximum = 0.054 (at node 6)
Accepted flit rate average= 0.0481111
	minimum = 0.0436667 (at node 8)
	maximum = 0.054 (at node 2)
Injected packet length average = 1
Accepted packet length average = 1
Total in-flight flits = 5 (0 measured)
====== Peak Queue Occupancy Statistics (Absolute Max) ======
  Overall Max VC Occupancy = 1
  Overall Max Buffer Occupancy = 1
latency change    = 1
throughput change = 1
Class 0:
Packet latency average = 13.0399
	minimum = 11
	maximum = 18
	95th percentile = 17.5
	99th percentile = 18.5
Network latency average = 13.0399
	minimum = 11
	maximum = 18
	95th percentile = 17.5
	99th percentile = 18.5
Slowest packet = 269
Flit latency average = 13.0399
	minimum = 11
	maximum = 18
	95th percentile = 17.5
	99th percentile = 18.5
Slowest flit = 269
Fragmentation average = 0
	minimum = 0
	maximum = 0
Injected packet rate average = 0.0745926
	minimum = 0.069 (at node 8)
	maximum = 0.0791667 (at node 1)
Accepted packet rate average = 0.0742407
	minimum = 0.0688333 (at node 0)
	maximum = 0.0788333 (at node 3)
Injected flit rate average = 0.0745926
	minimum = 0.069 (at node 8)
	maximum = 0.0791667 (at node 1)
Accepted flit rate average= 0.0742407
	minimum = 0.0688333 (at node 0)
	maximum = 0.0788333 (at node 3)
Injected packet length average = 1
Accepted packet length average = 1
Total in-flight flits = 19 (0 measured)
====== Peak Queue Occupancy Statistics (Absolute Max) ======
  Overall Max VC Occupancy = 1
  Overall Max Buffer Occupancy = 2
latency change    = 0.000953822
throughput change = 0.351958
Warmed up ...Time used is 6000 cycles
Class 0:
Packet latency average = 13.0536
	minimum = 11
	maximum = 19
	95th percentile = 17.5
	99th percentile = 18.5
Network latency average = 13.0536
	minimum = 11
	maximum = 19
	95th percentile = 17.5
	99th percentile = 18.5
Slowest packet = 4195
Flit latency average = 13.0545
	minimum = 11
	maximum = 19
	95th percentile = 17.5
	99th percentile = 18.5
Slowest flit = 4195
Fragmentation average = 0
	minimum = 0
	maximum = 0
Injected packet rate average = 0.148667
	minimum = 0.134333 (at node 1)
	maximum = 0.155 (at node 8)
Accepted packet rate average = 0.148704
	minimum = 0.134667 (at node 3)
	maximum = 0.154667 (at node 0)
Injected flit rate average = 0.148667
	minimum = 0.134333 (at node 1)
	maximum = 0.155 (at node 8)
Accepted flit rate average= 0.148704
	minimum = 0.134667 (at node 3)
	maximum = 0.154667 (at node 0)
Injected packet length average = 1
Accepted packet length average = 1
Total in-flight flits = 18 (18 measured)
====== Peak Queue Occupancy Statistics (Absolute Max) ======
  Overall Max VC Occupancy = 1
  Overall Max Buffer Occupancy = 2
latency change    = 0.00104518
throughput change = 0.500747
Class 0:
Packet latency average = 13.0677
	minimum = 11
	maximum = 19
	95th percentile = 17.5
	99th percentile = 18.5
Network latency average = 13.0677
	minimum = 11
	maximum = 19
	95th percentile = 17.5
	99th percentile = 18.5
Slowest packet = 4195
Flit latency average = 13.0681
	minimum = 11
	maximum = 19
	95th percentile = 17.5
	99th percentile = 18.5
Slowest flit = 4195
Fragmentation average = 0
	minimum = 0
	maximum = 0
Injected packet rate average = 0.173815
	minimum = 0.167667 (at node 1)
	maximum = 0.1795 (at node 2)
Accepted packet rate average = 0.173704
	minimum = 0.1675 (at node 3)
	maximum = 0.179167 (at node 6)
Injected flit rate average = 0.173815
	minimum = 0.167667 (at node 1)
	maximum = 0.1795 (at node 2)
Accepted flit rate average= 0.173704
	minimum = 0.1675 (at node 3)
	maximum = 0.179167 (at node 6)
Injected packet length average = 1
Accepted packet length average = 1
Total in-flight flits = 25 (25 measured)
====== Peak Queue Occupancy Statistics (Absolute Max) ======
  Overall Max VC Occupancy = 1
  Overall Max Buffer Occupancy = 2
latency change    = 0.00108468
throughput change = 0.143923
Class 0:
Packet latency average = 13.0732
	minimum = 11
	maximum = 20
	95th percentile = 17.5
	99th percentile = 18.5
Network latency average = 13.0732
	minimum = 11
	maximum = 20
	95th percentile = 17.5
	99th percentile = 18.5
Slowest packet = 13445
Flit latency average = 13.0735
	minimum = 11
	maximum = 20
	95th percentile = 17.5
	99th percentile = 18.5
Slowest flit = 13445
Fragmentation average = 0
	minimum = 0
	maximum = 0
Injected packet rate average = 0.198556
	minimum = 0.196 (at node 1)
	maximum = 0.205667 (at node 7)
Accepted packet rate average = 0.198321
	minimum = 0.195444 (at node 0)
	maximum = 0.205556 (at node 5)
Injected flit rate average = 0.198556
	minimum = 0.196 (at node 1)
	maximum = 0.205667 (at node 7)
Accepted flit rate average= 0.198321
	minimum = 0.195444 (at node 0)
	maximum = 0.205556 (at node 5)
Injected packet length average = 1
Accepted packet length average = 1
Total in-flight flits = 38 (38 measured)
====== Peak Queue Occupancy Statistics (Absolute Max) ======
  Overall Max VC Occupancy = 1
  Overall Max Buffer Occupancy = 2
latency change    = 0.000420992
throughput change = 0.124128
Class 0:
Packet latency average = 13.1011
	minimum = 11
	maximum = 21
	95th percentile = 17.5
	99th percentile = 18.5
Network latency average = 13.1011
	minimum = 11
	maximum = 21
	95th percentile = 17.5
	99th percentile = 18.5
Slowest packet = 21009
Flit latency average = 13.1013
	minimum = 11
	maximum = 21
	95th percentile = 17.5
	99th percentile = 18.5
Slowest flit = 21009
Fragmentation average = 0
	minimum = 0
	maximum = 0
Injected packet rate average = 0.225056
	minimum = 0.223083 (at node 6)
	maximum = 0.229167 (at node 7)
Accepted packet rate average = 0.224935
	minimum = 0.223083 (at node 2)
	maximum = 0.229 (at node 5)
Injected flit rate average = 0.225056
	minimum = 0.223083 (at node 6)
	maximum = 0.229167 (at node 7)
Accepted flit rate average= 0.224935
	minimum = 0.223083 (at node 2)
	maximum = 0.229 (at node 5)
Injected packet length average = 1
Accepted packet length average = 1
Total in-flight flits = 32 (32 measured)
====== Peak Queue Occupancy Statistics (Absolute Max) ======
  Overall Max VC Occupancy = 1
  Overall Max Buffer Occupancy = 2
latency change    = 0.00213
throughput change = 0.118319
Class 0:
Packet latency average = 13.1293
	minimum = 11
	maximum = 22
	95th percentile = 18.5
	99th percentile = 19.5
Network latency average = 13.1293
	minimum = 11
	maximum = 22
	95th percentile = 18.5
	99th percentile = 19.5
Slowest packet = 29716
Flit latency average = 13.1293
	minimum = 11
	maximum = 22
	95th percentile = 18.5
	99th percentile = 19.5
Slowest flit = 29716
Fragmentation average = 0
	minimum = 0
	maximum = 0
Injected packet rate average = 0.250067
	minimum = 0.244467 (at node 6)
	maximum = 0.255133 (at node 7)
Accepted packet rate average = 0.249874
	minimum = 0.244067 (at node 2)
	maximum = 0.255133 (at node 5)
Injected flit rate average = 0.250067
	minimum = 0.244467 (at node 6)
	maximum = 0.255133 (at node 7)
Accepted flit rate average= 0.249874
	minimum = 0.244067 (at node 2)
	maximum = 0.255133 (at node 5)
Injected packet length average = 1
Accepted packet length average = 1
Total in-flight flits = 45 (45 measured)
====== Peak Queue Occupancy Statistics (Absolute Max) ======
  Overall Max VC Occupancy = 1
  Overall Max Buffer Occupancy = 2
latency change    = 0.0021423
throughput change = 0.0998058
Class 0:
Packet latency average = 13.2104
	minimum = 11
	maximum = 25
	95th percentile = 18.5
	99th percentile = 19.5
Network latency average = 13.2104
	minimum = 11
	maximum = 25
	95th percentile = 18.5
	99th percentile = 19.5
Slowest packet = 39990
Flit latency average = 13.2104
	minimum = 11
	maximum = 25
	95th percentile = 18.5
	99th percentile = 19.5
Slowest flit = 39990
Fragmentation average = 0
	minimum = 0
	maximum = 0
Injected packet rate average = 0.275395
	minimum = 0.270167 (at node 6)
	maximum = 0.279444 (at node 7)
Accepted packet rate average = 0.275167
	minimum = 0.269889 (at node 2)
	maximum = 0.279167 (at node 5)
Injected flit rate average = 0.275395
	minimum = 0.270167 (at node 6)
	maximum = 0.279444 (at node 7)
Accepted flit rate average= 0.275167
	minimum = 0.269889 (at node 2)
	maximum = 0.279167 (at node 5)
Injected packet length average = 1
Accepted packet length average = 1
Total in-flight flits = 56 (56 measured)
====== Peak Queue Occupancy Statistics (Absolute Max) ======
  Overall Max VC Occupancy = 1
  Overall Max Buffer Occupancy = 2
latency change    = 0.00614015
throughput change = 0.0919174
Class 0:
Packet latency average = 13.4082
	minimum = 11
	maximum = 29
	95th percentile = 18.5
	99th percentile = 22.5
Network latency average = 13.4082
	minimum = 11
	maximum = 29
	95th percentile = 18.5
	99th percentile = 22.5
Slowest packet = 53839
Flit latency average = 13.4082
	minimum = 11
	maximum = 29
	95th percentile = 18.5
	99th percentile = 22.5
Slowest flit = 53839
Fragmentation average = 0
	minimum = 0
	maximum = 0
Injected packet rate average = 0.300259
	minimum = 0.298476 (at node 6)
	maximum = 0.303571 (at node 7)
Accepted packet rate average = 0.300058
	minimum = 0.298238 (at node 0)
	maximum = 0.303286 (at node 5)
Injected flit rate average = 0.300259
	minimum = 0.298476 (at node 6)
	maximum = 0.303571 (at node 7)
Accepted flit rate average= 0.300058
	minimum = 0.298238 (at node 0)
	maximum = 0.303286 (at node 5)
Injected packet length average = 1
Accepted packet length average = 1
Total in-flight flits = 57 (57 measured)
====== Peak Queue Occupancy Statistics (Absolute Max) ======
  Overall Max VC Occupancy = 1
  Overall Max Buffer Occupancy = 2
latency change    = 0.0147569
throughput change = 0.0829557
Class 0:
Packet latency average = 16.7509
	minimum = 11
	maximum = 543
	95th percentile = 33.5
	99th percentile = 86.5
Network latency average = 16.7044
	minimum = 11
	maximum = 543
	95th percentile = 33.5
	99th percentile = 84.5
Slowest packet = 71328
Flit latency average = 16.7034
	minimum = 11
	maximum = 543
	95th percentile = 33.5
	99th percentile = 84.5
Slowest flit = 71328
Fragmentation average = 0
	minimum = 0
	maximum = 0
Injected packet rate average = 0.325597
	minimum = 0.3225 (at node 4)
	maximum = 0.331333 (at node 2)
Accepted packet rate average = 0.324782
	minimum = 0.32225 (at node 8)
	maximum = 0.329208 (at node 6)
Injected flit rate average = 0.325597
	minimum = 0.3225 (at node 4)
	maximum = 0.331333 (at node 2)
Accepted flit rate average= 0.324782
	minimum = 0.32225 (at node 8)
	maximum = 0.329208 (at node 6)
Injected packet length average = 1
Accepted packet length average = 1
Total in-flight flits = 195 (195 measured)
====== Peak Queue Occupancy Statistics (Absolute Max) ======
  Overall Max VC Occupancy = 1
  Overall Max Buffer Occupancy = 48
latency change    = 0.199551
throughput change = 0.0761254
Class 0:
Packet latency average = 30.977
	minimum = 11
	maximum = 1677
	95th percentile = 106.5
	99th percentile = 438.5
Network latency average = 24.7028
	minimum = 11
	maximum = 1677
	95th percentile = 69.5
	99th percentile = 237.5
Slowest packet = 80702
Flit latency average = 24.7002
	minimum = 11
	maximum = 1677
	95th percentile = 69.5
	99th percentile = 237.5
Slowest flit = 80702
Fragmentation average = 0
	minimum = 0
	maximum = 0
Injected packet rate average = 0.348514
	minimum = 0.345815 (at node 1)
	maximum = 0.351963 (at node 2)
Accepted packet rate average = 0.346864
	minimum = 0.342889 (at node 3)
	maximum = 0.349148 (at node 7)
Injected flit rate average = 0.348514
	minimum = 0.345815 (at node 1)
	maximum = 0.351963 (at node 2)
Accepted flit rate average= 0.346864
	minimum = 0.342889 (at node 3)
	maximum = 0.349148 (at node 7)
Injected packet length average = 1
Accepted packet length average = 1
Total in-flight flits = 422 (422 measured)
====== Peak Queue Occupancy Statistics (Absolute Max) ======
  Overall Max VC Occupancy = 1
  Overall Max Buffer Occupancy = 48
latency change    = 0.459248
throughput change = 0.0636612
Class 0:
Packet latency average = 66.4713
	minimum = 11
	maximum = 2866
	95th percentile = 354.5
	99th percentile = 999.5
Network latency average = 33.9014
	minimum = 11
	maximum = 2634
	95th percentile = 106.5
	99th percentile = 387.5
Slowest packet = 80002
Flit latency average = 33.8975
	minimum = 11
	maximum = 2634
	95th percentile = 106.5
	99th percentile = 387.5
Slowest flit = 80002
Fragmentation average = 0
	minimum = 0
	maximum = 0
Injected packet rate average = 0.369074
	minimum = 0.3589 (at node 1)
	maximum = 0.374433 (at node 8)
Accepted packet rate average = 0.367604
	minimum = 0.3569 (at node 3)
	maximum = 0.374167 (at node 8)
Injected flit rate average = 0.369074
	minimum = 0.3589 (at node 1)
	maximum = 0.374433 (at node 8)
Accepted flit rate average= 0.367604
	minimum = 0.3569 (at node 3)
	maximum = 0.374167 (at node 8)
Injected packet length average = 1
Accepted packet length average = 1
Total in-flight flits = 418 (418 measured)
====== Peak Queue Occupancy Statistics (Absolute Max) ======
  Overall Max VC Occupancy = 1
  Overall Max Buffer Occupancy = 48
latency change    = 0.533979
throughput change = 0.0564181
Class 0:
Packet latency average = 117.385
	minimum = 11
	maximum = 3013
	95th percentile = 964.5
	99th percentile = 999.5
Network latency average = 40.4367
	minimum = 11
	maximum = 2634
	95th percentile = 133.5
	99th percentile = 477.5
Slowest packet = 80002
Flit latency average = 40.4321
	minimum = 11
	maximum = 2634
	95th percentile = 133.5
	99th percentile = 477.5
Slowest flit = 80002
Fragmentation average = 0
	minimum = 0
	maximum = 0
Injected packet rate average = 0.385919
	minimum = 0.36903 (at node 6)
	maximum = 0.395303 (at node 4)
Accepted packet rate average = 0.384582
	minimum = 0.365545 (at node 2)
	maximum = 0.395212 (at node 8)
Injected flit rate average = 0.385919
	minimum = 0.36903 (at node 6)
	maximum = 0.395303 (at node 4)
Accepted flit rate average= 0.384582
	minimum = 0.365545 (at node 2)
	maximum = 0.395212 (at node 8)
Injected packet length average = 1
Accepted packet length average = 1
Total in-flight flits = 417 (417 measured)
====== Peak Queue Occupancy Statistics (Absolute Max) ======
  Overall Max VC Occupancy = 1
  Overall Max Buffer Occupancy = 48
latency change    = 0.433731
throughput change = 0.0441486
Class 0:
Packet latency average = 183.878
	minimum = 11
	maximum = 3686
	95th percentile = 999.5
	99th percentile = 999.5
Network latency average = 45.5069
	minimum = 11
	maximum = 2653
	95th percentile = 159.5
	99th percentile = 521.5
Slowest packet = 80002
Flit latency average = 45.5021
	minimum = 11
	maximum = 2653
	95th percentile = 159.5
	99th percentile = 521.5
Slowest flit = 111568
Fragmentation average = 0
	minimum = 0
	maximum = 0
Injected packet rate average = 0.399772
	minimum = 0.384444 (at node 1)
	maximum = 0.41275 (at node 5)
Accepted packet rate average = 0.398537
	minimum = 0.382333 (at node 3)
	maximum = 0.412639 (at node 7)
Injected flit rate average = 0.399772
	minimum = 0.384444 (at node 1)
	maximum = 0.41275 (at node 5)
Accepted flit rate average= 0.398537
	minimum = 0.382333 (at node 3)
	maximum = 0.412639 (at node 7)
Injected packet length average = 1
Accepted packet length average = 1
Total in-flight flits = 422 (422 measured)
====== Peak Queue Occupancy Statistics (Absolute Max) ======
  Overall Max VC Occupancy = 1
  Overall Max Buffer Occupancy = 48
latency change    = 0.361618
throughput change = 0.0350144
Class 0:
Packet latency average = 256.623
	minimum = 11
	maximum = 4499
	95th percentile = 999.5
	99th percentile = 999.5
Network latency average = 49.5444
	minimum = 11
	maximum = 2653
	95th percentile = 177.5
	99th percentile = 574.5
Slowest packet = 80002
Flit latency average = 49.5396
	minimum = 11
	maximum = 2653
	95th percentile = 177.5
	99th percentile = 573.5
Slowest flit = 111568
Fragmentation average = 0
	minimum = 0
	maximum = 0
Injected packet rate average = 0.411718
	minimum = 0.392769 (at node 6)
	maximum = 0.426897 (at node 5)
Accepted packet rate average = 0.410581
	minimum = 0.389487 (at node 2)
	maximum = 0.426795 (at node 7)
Injected flit rate average = 0.411718
	minimum = 0.392769 (at node 6)
	maximum = 0.426897 (at node 5)
Accepted flit rate average= 0.410581
	minimum = 0.389487 (at node 2)
	maximum = 0.426795 (at node 7)
Injected packet length average = 1
Accepted packet length average = 1
Total in-flight flits = 421 (421 measured)
====== Peak Queue Occupancy Statistics (Absolute Max) ======
  Overall Max VC Occupancy = 1
  Overall Max Buffer Occupancy = 48
latency change    = 0.283469
throughput change = 0.0293344
Class 0:
Packet latency average = 333.739
	minimum = 11
	maximum = 4629
	95th percentile = 999.5
	99th percentile = 999.5
Network latency average = 52.7399
	minimum = 11
	maximum = 2653
	95th percentile = 189.5
	99th percentile = 657.5
Slowest packet = 80002
Flit latency average = 52.7352
	minimum = 11
	maximum = 2653
	95th percentile = 189.5
	99th percentile = 657.5
Slowest flit = 111568
Fragmentation average = 0
	minimum = 0
	maximum = 0
Injected packet rate average = 0.42196
	minimum = 0.396762 (at node 6)
	maximum = 0.439286 (at node 5)
Accepted packet rate average = 0.420902
	minimum = 0.393905 (at node 2)
	maximum = 0.439143 (at node 7)
Injected flit rate average = 0.42196
	minimum = 0.396762 (at node 6)
	maximum = 0.439286 (at node 5)
Accepted flit rate average= 0.420902
	minimum = 0.393905 (at node 2)
	maximum = 0.439143 (at node 7)
Injected packet length average = 1
Accepted packet length average = 1
Total in-flight flits = 421 (421 measured)
====== Peak Queue Occupancy Statistics (Absolute Max) ======
  Overall Max VC Occupancy = 1
  Overall Max Buffer Occupancy = 48
latency change    = 0.231068
throughput change = 0.024521
Class 0:
Packet latency average = 417.432
	minimum = 11
	maximum = 5278
	95th percentile = 999.5
	99th percentile = 999.5
Network latency average = 55.4715
	minimum = 11
	maximum = 2653
	95th percentile = 196.5
	99th percentile = 720.5
Slowest packet = 80002
Flit latency average = 55.4669
	minimum = 11
	maximum = 2653
	95th percentile = 196.5
	99th percentile = 720.5
Slowest flit = 111568
Fragmentation average = 0
	minimum = 0
	maximum = 0
Injected packet rate average = 0.430501
	minimum = 0.407044 (at node 1)
	maximum = 0.449489 (at node 5)
Accepted packet rate average = 0.429526
	minimum = 0.4054 (at node 3)
	maximum = 0.449444 (at node 7)
Injected flit rate average = 0.430501
	minimum = 0.407044 (at node 1)
	maximum = 0.449489 (at node 5)
Accepted flit rate average= 0.429526
	minimum = 0.4054 (at node 3)
	maximum = 0.449444 (at node 7)
Injected packet length average = 1
Accepted packet length average = 1
Total in-flight flits = 417 (417 measured)
====== Peak Queue Occupancy Statistics (Absolute Max) ======
  Overall Max VC Occupancy = 1
  Overall Max Buffer Occupancy = 48
latency change    = 0.200494
throughput change = 0.0200775
Class 0:
Packet latency average = 500.802
	minimum = 11
	maximum = 5879
	95th percentile = 999.5
	99th percentile = 999.5
Network latency average = 57.7362
	minimum = 11
	maximum = 2653
	95th percentile = 205.5
	99th percentile = 767.5
Slowest packet = 80002
Flit latency average = 57.7318
	minimum = 11
	maximum = 2653
	95th percentile = 205.5
	99th percentile = 767.5
Slowest flit = 111568
Fragmentation average = 0
	minimum = 0
	maximum = 0
Injected packet rate average = 0.438528
	minimum = 0.411687 (at node 6)
	maximum = 0.458979 (at node 3)
Accepted packet rate average = 0.437606
	minimum = 0.409021 (at node 2)
	maximum = 0.458896 (at node 1)
Injected flit rate average = 0.438528
	minimum = 0.411687 (at node 6)
	maximum = 0.458979 (at node 3)
Accepted flit rate average= 0.437606
	minimum = 0.409021 (at node 2)
	maximum = 0.458896 (at node 1)
Injected packet length average = 1
Accepted packet length average = 1
Total in-flight flits = 419 (419 measured)
====== Peak Queue Occupancy Statistics (Absolute Max) ======
  Overall Max VC Occupancy = 1
  Overall Max Buffer Occupancy = 48
latency change    = 0.166474
throughput change = 0.0184653
Class 0:
Packet latency average = 587.038
	minimum = 11
	maximum = 6197
	95th percentile = 999.5
	99th percentile = 999.5
Network latency average = 59.616
	minimum = 11
	maximum = 2653
	95th percentile = 213.5
	99th percentile = 767.5
Slowest packet = 80002
Flit latency average = 59.6116
	minimum = 11
	maximum = 2653
	95th percentile = 213.5
	99th percentile = 767.5
Slowest flit = 111568
Fragmentation average = 0
	minimum = 0
	maximum = 0
Injected packet rate average = 0.445331
	minimum = 0.414863 (at node 6)
	maximum = 0.467196 (at node 8)
Accepted packet rate average = 0.444453
	minimum = 0.412725 (at node 2)
	maximum = 0.467078 (at node 1)
Injected flit rate average = 0.445331
	minimum = 0.414863 (at node 6)
	maximum = 0.467196 (at node 8)
Accepted flit rate average= 0.444453
	minimum = 0.412725 (at node 2)
	maximum = 0.467078 (at node 1)
Injected packet length average = 1
Accepted packet length average = 1
Total in-flight flits = 423 (423 measured)
====== Peak Queue Occupancy Statistics (Absolute Max) ======
  Overall Max VC Occupancy = 1
  Overall Max Buffer Occupancy = 48
latency change    = 0.1469
throughput change = 0.0154047
Class 0:
Packet latency average = 677.402
	minimum = 11
	maximum = 6817
	95th percentile = 999.5
	99th percentile = 999.5
Network latency average = 61.3295
	minimum = 11
	maximum = 2653
	95th percentile = 218.5
	99th percentile = 767.5
Slowest packet = 80002
Flit latency average = 61.3253
	minimum = 11
	maximum = 2653
	95th percentile = 218.5
	99th percentile = 767.5
Slowest flit = 111568
Fragmentation average = 0
	minimum = 0
	maximum = 0
Injected packet rate average = 0.451329
	minimum = 0.422222 (at node 1)
	maximum = 0.475556 (at node 8)
Accepted packet rate average = 0.450504
	minimum = 0.420852 (at node 3)
	maximum = 0.475407 (at node 0)
Injected flit rate average = 0.451329
	minimum = 0.422222 (at node 1)
	maximum = 0.475556 (at node 8)
Accepted flit rate average= 0.450504
	minimum = 0.420852 (at node 3)
	maximum = 0.475407 (at node 0)
Injected packet length average = 1
Accepted packet length average = 1
Total in-flight flits = 422 (422 measured)
====== Peak Queue Occupancy Statistics (Absolute Max) ======
  Overall Max VC Occupancy = 1
  Overall Max Buffer Occupancy = 48
latency change    = 0.133398
throughput change = 0.0134315
Class 0:
Packet latency average = 766.977
	minimum = 11
	maximum = 7369
	95th percentile = 999.5
	99th percentile = 999.5
Network latency average = 62.7658
	minimum = 11
	maximum = 2653
	95th percentile = 223.5
	99th percentile = 775.5
Slowest packet = 80002
Flit latency average = 62.7618
	minimum = 11
	maximum = 2653
	95th percentile = 223.5
	99th percentile = 775.5
Slowest flit = 111568
Fragmentation average = 0
	minimum = 0
	maximum = 0
Injected packet rate average = 0.456979
	minimum = 0.424649 (at node 6)
	maximum = 0.482526 (at node 8)
Accepted packet rate average = 0.456183
	minimum = 0.422509 (at node 2)
	maximum = 0.482351 (at node 0)
Injected flit rate average = 0.456979
	minimum = 0.424649 (at node 6)
	maximum = 0.482526 (at node 8)
Accepted flit rate average= 0.456183
	minimum = 0.422509 (at node 2)
	maximum = 0.482351 (at node 0)
Injected packet length average = 1
Accepted packet length average = 1
Total in-flight flits = 430 (430 measured)
====== Peak Queue Occupancy Statistics (Absolute Max) ======
  Overall Max VC Occupancy = 1
  Overall Max Buffer Occupancy = 48
latency change    = 0.116789
throughput change = 0.0124492
Class 0:
Packet latency average = 858.431
	minimum = 11
	maximum = 7726
	95th percentile = 999.5
	99th percentile = 999.5
Network latency average = 63.9403
	minimum = 11
	maximum = 2653
	95th percentile = 226.5
	99th percentile = 786.5
Slowest packet = 80002
Flit latency average = 63.9364
	minimum = 11
	maximum = 2653
	95th percentile = 226.5
	99th percentile = 786.5
Slowest flit = 111568
Fragmentation average = 0
	minimum = 0
	maximum = 0
Injected packet rate average = 0.462174
	minimum = 0.4283 (at node 6)
	maximum = 0.4888 (at node 8)
Accepted packet rate average = 0.46143
	minimum = 0.426617 (at node 2)
	maximum = 0.48865 (at node 0)
Injected flit rate average = 0.462174
	minimum = 0.4283 (at node 6)
	maximum = 0.4888 (at node 8)
Accepted flit rate average= 0.46143
	minimum = 0.426617 (at node 2)
	maximum = 0.48865 (at node 0)
Injected packet length average = 1
Accepted packet length average = 1
Total in-flight flits = 423 (423 measured)
====== Peak Queue Occupancy Statistics (Absolute Max) ======
  Overall Max VC Occupancy = 1
  Overall Max Buffer Occupancy = 48
latency change    = 0.106536
throughput change = 0.0113699
Draining all recorded packets ...
Class 0:
Remaining flits: 247943 248194 248383 248425 248438 248703 248885 249094 249270 249344 [...] (419 flits)
Measured flits: 247943 248194 248383 248425 248438 248703 248885 249094 249270 249344 [...] (385 flits)
Class 0:
Remaining flits: 253046 253297 253534 253761 253997 254240 254475 254694 254786 254933 [...] (424 flits)
Measured flits: 253046 253297 253534 253761 253997 254240 254475 254694 254786 254933 [...] (384 flits)
Class 0:
Remaining flits: 258049 258283 258523 258773 259004 259249 259493 259730 259972 260201 [...] (426 flits)
Measured flits: 258049 258283 258523 258773 259004 259249 259493 259730 259972 260201 [...] (386 flits)
Class 0:
Remaining flits: 262978 263218 263467 263700 263951 264304 264534 264546 264719 264767 [...] (421 flits)
Measured flits: 262978 263218 263467 263700 263951 264304 264534 264546 264719 264767 [...] (385 flits)
Class 0:
Remaining flits: 266494 266916 267391 268150 268862 268878 269012 269373 269382 269614 [...] (423 flits)
Measured flits: 266494 266916 267391 268150 268862 268878 269012 269373 269382 269614 [...] (384 flits)
Class 0:
Remaining flits: 272458 272493 272602 272806 272826 273291 273306 273378 273388 273602 [...] (416 flits)
Measured flits: 272458 272493 272602 272806 272826 273291 273306 273378 273388 273602 [...] (384 flits)
Class 0:
Remaining flits: 278016 278260 278513 278751 278991 279224 279460 279702 279948 280194 [...] (423 flits)
Measured flits: 278016 278260 278513 278751 278991 279224 279460 279702 279948 280194 [...] (181 flits)
Class 0:
Remaining flits: 283015 283244 283458 283688 283939 284165 284396 284632 284862 285101 [...] (423 flits)
Measured flits: 283015 283244 283458 283688 283939 284165 284396 284632 284862 285101 [...] (23 flits)
Class 0:
Remaining flits: 287407 287756 287886 288270 288431 288695 288895 288979 289677 289701 [...] (422 flits)
Measured flits: 287407 (1 flits)
Draining remaining packets ...
Time taken is 75326 cycles
====== Overall Traffic Statistics ======
====== Traffic class 0 ======
Packet latency average = 1169.09 (1 samples)
	minimum = 11 (1 samples)
	maximum = 9338 (1 samples)
Network latency average = 71.3752 (1 samples)
	minimum = 11 (1 samples)
	maximum = 2653 (1 samples)
Flit latency average = 67.5321 (1 samples)
	minimum = 11 (1 samples)
	maximum = 2653 (1 samples)
Fragmentation average = 0 (1 samples)
	minimum = 0 (1 samples)
	maximum = 0 (1 samples)
Injected packet rate average = 0.462174 (1 samples)
	minimum = 0.4283 (1 samples)
	maximum = 0.4888 (1 samples)
Accepted packet rate average = 0.46143 (1 samples)
	minimum = 0.426617 (1 samples)
	maximum = 0.48865 (1 samples)
Injected flit rate average = 0.462174 (1 samples)
	minimum = 0.4283 (1 samples)
	maximum = 0.4888 (1 samples)
Accepted flit rate average = 0.46143 (1 samples)
	minimum = 0.426617 (1 samples)
	maximum = 0.48865 (1 samples)
Injected packet size average = 1 (1 samples)
Accepted packet size average = 1 (1 samples)
Hops average = 3.66917 (1 samples)
Total run time 27.4293

