BEGIN Configuration File: D:\noc_huawei\noc\booksim2-noc_speedup_study\booksim2-noc_speedup_study\tests\data\results\fixed_perm_growth_models_perm_4_3_6_1_8_7_2_5_0_peak_0p6_current_defaults\tmp_configs\linear_scale_dim_order_s2204.config
num_vcs     = 48;
vc_buf_size = 16;
wait_for_tail_credit = 1;

vc_allocator = islip;
sw_allocator = islip;
alloc_iters  = 16;

credit_delay   = 2;
routing_delay  = 0;
vc_alloc_delay = 1;
sw_alloc_delay = 1;
st_final_delay = 1;

input_speedup     = 1;
output_speedup    = 1;
internal_speedup  = 2.0;

sim_type = latency;
latency_thres  = 100000.0;
sim_count      = 1;
queue_sample_period_cycles = 0;

topology = mesh;
k  = 3;
n  = 2;

hybrid_transition_mode = linear_prob;
hybrid_xy_low_threshold = 0.35;
hybrid_racke_high_threshold = 0.65;
hybrid_buffer_soft_threshold = 0.50;
hybrid_buffer_hard_threshold = 0.85;
hybrid_buffer_release_threshold = 0.35;
hybrid_rate_soft_threshold = 0.55;
hybrid_rate_hard_threshold = 0.90;
hybrid_rate_weight = 0.25;
hybrid_congestion_alpha = 0.25;
hybrid_racke_increase_step = 0.25;
hybrid_racke_decrease_step = 0.10;
hybrid_epoch_cycles = 200;
hybrid_hold_cycles = 600;
hybrid_enable_midflight_override = 1;
hybrid_feedback_delay_per_hop = 1;
hybrid_flow_increase_step = 0.20;
hybrid_flow_decrease_step = 0.08;
hybrid_flow_hard_threshold = 0.95;

packet_size = 1;


ordered_injection_coefficients = {0.1666666667,0.3333333333,0.5};
ordered_injection_phase_cycles = {1000,1000,1000};
ordered_injection_source_order = {4,0,7,2,8,1,5,3,6};
ordered_injection_flow_peak_rate = 0.60;
warmup_periods = 2;
custom_perm_array = {4,3,6,1,8,7,2,5,0};
injection_process = scheduled;
injection_rate = 0.6;
scheduled_default_phase_cycles = 3000;
perm_seed = 2204;
hybrid_flow_hotspot_alpha = 0.85;
hybrid_stats_window_cycles = 3000;
hybrid_flow_hotspot_threshold = 1.1;
sample_period = 3000;
scheduled_injection_rates = {0.05,0.1,0.15,0.2,0.25,0.3,0.35,0.4,0.45,0.5,0.55,0.6,0.6,0.6};
traffic = custom_perm;
routing_function = dim_order;
scheduled_phase_cycles = {3000,3000,3000,3000,3000,3000,3000,3000,3000,3000,3000,3000,3000,3000};
seed = 2204;
max_samples = 22;

END Configuration File: D:\noc_huawei\noc\booksim2-noc_speedup_study\booksim2-noc_speedup_study\tests\data\results\fixed_perm_growth_models_perm_4_3_6_1_8_7_2_5_0_peak_0p6_current_defaults\tmp_configs\linear_scale_dim_order_s2204.config
Class 0:
Packet latency average = 12.9896
	minimum = 11
	maximum = 18
	95th percentile = 17.5
	99th percentile = 17.5
Network latency average = 12.9896
	minimum = 11
	maximum = 18
	95th percentile = 17.5
	99th percentile = 17.5
Slowest packet = 70
Flit latency average = 12.9896
	minimum = 11
	maximum = 18
	95th percentile = 17.5
	99th percentile = 17.5
Slowest flit = 70
Fragmentation average = 0
	minimum = 0
	maximum = 0
Injected packet rate average = 0.0500741
	minimum = 0.043 (at node 1)
	maximum = 0.0553333 (at node 0)
Accepted packet rate average = 0.0497037
	minimum = 0.0426667 (at node 3)
	maximum = 0.055 (at node 4)
Injected flit rate average = 0.0500741
	minimum = 0.043 (at node 1)
	maximum = 0.0553333 (at node 0)
Accepted flit rate average= 0.0497037
	minimum = 0.0426667 (at node 3)
	maximum = 0.055 (at node 4)
Injected packet length average = 1
Accepted packet length average = 1
Total in-flight flits = 10 (0 measured)
====== Peak Queue Occupancy Statistics (Absolute Max) ======
  Overall Max VC Occupancy = 1
  Overall Max Buffer Occupancy = 1
latency change    = 1
throughput change = 1
Class 0:
Packet latency average = 12.993
	minimum = 11
	maximum = 18
	95th percentile = 17.5
	99th percentile = 18.5
Network latency average = 12.993
	minimum = 11
	maximum = 18
	95th percentile = 17.5
	99th percentile = 18.5
Slowest packet = 70
Flit latency average = 12.993
	minimum = 11
	maximum = 18
	95th percentile = 17.5
	99th percentile = 18.5
Slowest flit = 70
Fragmentation average = 0
	minimum = 0
	maximum = 0
Injected packet rate average = 0.0766111
	minimum = 0.0706667 (at node 1)
	maximum = 0.0818333 (at node 0)
Accepted packet rate average = 0.0763333
	minimum = 0.0705 (at node 3)
	maximum = 0.0816667 (at node 4)
Injected flit rate average = 0.0766111
	minimum = 0.0706667 (at node 1)
	maximum = 0.0818333 (at node 0)
Accepted flit rate average= 0.0763333
	minimum = 0.0705 (at node 3)
	maximum = 0.0816667 (at node 4)
Injected packet length average = 1
Accepted packet length average = 1
Total in-flight flits = 15 (0 measured)
====== Peak Queue Occupancy Statistics (Absolute Max) ======
  Overall Max VC Occupancy = 1
  Overall Max Buffer Occupancy = 2
latency change    = 0.000261432
throughput change = 0.34886
Warmed up ...Time used is 6000 cycles
Class 0:
Packet latency average = 13.026
	minimum = 11
	maximum = 19
	95th percentile = 17.5
	99th percentile = 18.5
Network latency average = 13.026
	minimum = 11
	maximum = 19
	95th percentile = 17.5
	99th percentile = 18.5
Slowest packet = 5558
Flit latency average = 13.0318
	minimum = 11
	maximum = 19
	95th percentile = 17.5
	99th percentile = 18.5
Slowest flit = 5558
Fragmentation average = 0
	minimum = 0
	maximum = 0
Injected packet rate average = 0.150333
	minimum = 0.140667 (at node 4)
	maximum = 0.167333 (at node 1)
Accepted packet rate average = 0.150259
	minimum = 0.140667 (at node 8)
	maximum = 0.167 (at node 3)
Injected flit rate average = 0.150333
	minimum = 0.140667 (at node 4)
	maximum = 0.167333 (at node 1)
Accepted flit rate average= 0.150259
	minimum = 0.140667 (at node 8)
	maximum = 0.167 (at node 3)
Injected packet length average = 1
Accepted packet length average = 1
Total in-flight flits = 17 (17 measured)
====== Peak Queue Occupancy Statistics (Absolute Max) ======
  Overall Max VC Occupancy = 1
  Overall Max Buffer Occupancy = 2
latency change    = 0.00253437
throughput change = 0.491989
Class 0:
Packet latency average = 13.0487
	minimum = 11
	maximum = 19
	95th percentile = 17.5
	99th percentile = 18.5
Network latency average = 13.0487
	minimum = 11
	maximum = 19
	95th percentile = 17.5
	99th percentile = 18.5
Slowest packet = 5558
Flit latency average = 13.0511
	minimum = 11
	maximum = 19
	95th percentile = 17.5
	99th percentile = 18.5
Slowest flit = 5558
Fragmentation average = 0
	minimum = 0
	maximum = 0
Injected packet rate average = 0.173685
	minimum = 0.171 (at node 3)
	maximum = 0.179 (at node 1)
Accepted packet rate average = 0.173444
	minimum = 0.170833 (at node 1)
	maximum = 0.1785 (at node 3)
Injected flit rate average = 0.173685
	minimum = 0.171 (at node 3)
	maximum = 0.179 (at node 1)
Accepted flit rate average= 0.173444
	minimum = 0.170833 (at node 1)
	maximum = 0.1785 (at node 3)
Injected packet length average = 1
Accepted packet length average = 1
Total in-flight flits = 28 (28 measured)
====== Peak Queue Occupancy Statistics (Absolute Max) ======
  Overall Max VC Occupancy = 1
  Overall Max Buffer Occupancy = 2
latency change    = 0.00173816
throughput change = 0.133675
Class 0:
Packet latency average = 13.0898
	minimum = 11
	maximum = 20
	95th percentile = 17.5
	99th percentile = 18.5
Network latency average = 13.0898
	minimum = 11
	maximum = 20
	95th percentile = 17.5
	99th percentile = 18.5
Slowest packet = 16714
Flit latency average = 13.0912
	minimum = 11
	maximum = 20
	95th percentile = 17.5
	99th percentile = 18.5
Slowest flit = 16714
Fragmentation average = 0
	minimum = 0
	maximum = 0
Injected packet rate average = 0.198617
	minimum = 0.194444 (at node 4)
	maximum = 0.201778 (at node 6)
Accepted packet rate average = 0.198519
	minimum = 0.194444 (at node 8)
	maximum = 0.201778 (at node 2)
Injected flit rate average = 0.198617
	minimum = 0.194444 (at node 4)
	maximum = 0.201778 (at node 6)
Accepted flit rate average= 0.198519
	minimum = 0.194444 (at node 8)
	maximum = 0.201778 (at node 2)
Injected packet length average = 1
Accepted packet length average = 1
Total in-flight flits = 23 (23 measured)
====== Peak Queue Occupancy Statistics (Absolute Max) ======
  Overall Max VC Occupancy = 1
  Overall Max Buffer Occupancy = 2
latency change    = 0.00314479
throughput change = 0.126306
Class 0:
Packet latency average = 13.13
	minimum = 11
	maximum = 21
	95th percentile = 17.5
	99th percentile = 18.5
Network latency average = 13.13
	minimum = 11
	maximum = 21
	95th percentile = 17.5
	99th percentile = 18.5
Slowest packet = 22598
Flit latency average = 13.1309
	minimum = 11
	maximum = 21
	95th percentile = 17.5
	99th percentile = 18.5
Slowest flit = 22598
Fragmentation average = 0
	minimum = 0
	maximum = 0
Injected packet rate average = 0.223759
	minimum = 0.218833 (at node 4)
	maximum = 0.229583 (at node 2)
Accepted packet rate average = 0.223509
	minimum = 0.218667 (at node 8)
	maximum = 0.229083 (at node 6)
Injected flit rate average = 0.223759
	minimum = 0.218833 (at node 4)
	maximum = 0.229583 (at node 2)
Accepted flit rate average= 0.223509
	minimum = 0.218667 (at node 8)
	maximum = 0.229083 (at node 6)
Injected packet length average = 1
Accepted packet length average = 1
Total in-flight flits = 42 (42 measured)
====== Peak Queue Occupancy Statistics (Absolute Max) ======
  Overall Max VC Occupancy = 1
  Overall Max Buffer Occupancy = 2
latency change    = 0.00306274
throughput change = 0.111811
Class 0:
Packet latency average = 13.1598
	minimum = 11
	maximum = 21
	95th percentile = 18.5
	99th percentile = 19.5
Network latency average = 13.1598
	minimum = 11
	maximum = 21
	95th percentile = 18.5
	99th percentile = 19.5
Slowest packet = 22598
Flit latency average = 13.1605
	minimum = 11
	maximum = 21
	95th percentile = 18.5
	99th percentile = 19.5
Slowest flit = 22598
Fragmentation average = 0
	minimum = 0
	maximum = 0
Injected packet rate average = 0.249496
	minimum = 0.2464 (at node 8)
	maximum = 0.254067 (at node 2)
Accepted packet rate average = 0.249326
	minimum = 0.246267 (at node 0)
	maximum = 0.253867 (at node 6)
Injected flit rate average = 0.249496
	minimum = 0.2464 (at node 8)
	maximum = 0.254067 (at node 2)
Accepted flit rate average= 0.249326
	minimum = 0.246267 (at node 0)
	maximum = 0.253867 (at node 6)
Injected packet length average = 1
Accepted packet length average = 1
Total in-flight flits = 38 (38 measured)
====== Peak Queue Occupancy Statistics (Absolute Max) ======
  Overall Max VC Occupancy = 1
  Overall Max Buffer Occupancy = 2
latency change    = 0.00226325
throughput change = 0.103546
Class 0:
Packet latency average = 13.2338
	minimum = 11
	maximum = 23
	95th percentile = 18.5
	99th percentile = 19.5
Network latency average = 13.2338
	minimum = 11
	maximum = 23
	95th percentile = 18.5
	99th percentile = 19.5
Slowest packet = 41006
Flit latency average = 13.2343
	minimum = 11
	maximum = 23
	95th percentile = 18.5
	99th percentile = 19.5
Slowest flit = 41006
Fragmentation average = 0
	minimum = 0
	maximum = 0
Injected packet rate average = 0.274401
	minimum = 0.268722 (at node 0)
	maximum = 0.279111 (at node 6)
Accepted packet rate average = 0.274198
	minimum = 0.268556 (at node 4)
	maximum = 0.278944 (at node 2)
Injected flit rate average = 0.274401
	minimum = 0.268722 (at node 0)
	maximum = 0.279111 (at node 6)
Accepted flit rate average= 0.274198
	minimum = 0.268556 (at node 4)
	maximum = 0.278944 (at node 2)
Injected packet length average = 1
Accepted packet length average = 1
Total in-flight flits = 48 (48 measured)
====== Peak Queue Occupancy Statistics (Absolute Max) ======
  Overall Max VC Occupancy = 1
  Overall Max Buffer Occupancy = 2
latency change    = 0.00559377
throughput change = 0.0907069
Class 0:
Packet latency average = 13.4059
	minimum = 11
	maximum = 29
	95th percentile = 18.5
	99th percentile = 21.5
Network latency average = 13.4059
	minimum = 11
	maximum = 29
	95th percentile = 18.5
	99th percentile = 21.5
Slowest packet = 50130
Flit latency average = 13.4062
	minimum = 11
	maximum = 29
	95th percentile = 18.5
	99th percentile = 21.5
Slowest flit = 50130
Fragmentation average = 0
	minimum = 0
	maximum = 0
Injected packet rate average = 0.300011
	minimum = 0.295619 (at node 0)
	maximum = 0.304762 (at node 2)
Accepted packet rate average = 0.299804
	minimum = 0.295286 (at node 4)
	maximum = 0.304571 (at node 6)
Injected flit rate average = 0.300011
	minimum = 0.295619 (at node 0)
	maximum = 0.304762 (at node 2)
Accepted flit rate average= 0.299804
	minimum = 0.295286 (at node 4)
	maximum = 0.304571 (at node 6)
Injected packet length average = 1
Accepted packet length average = 1
Total in-flight flits = 54 (54 measured)
====== Peak Queue Occupancy Statistics (Absolute Max) ======
  Overall Max VC Occupancy = 1
  Overall Max Buffer Occupancy = 2
latency change    = 0.0128361
throughput change = 0.0854114
Class 0:
Packet latency average = 14.1769
	minimum = 11
	maximum = 57
	95th percentile = 22.5
	99th percentile = 34.5
Network latency average = 14.1769
	minimum = 11
	maximum = 57
	95th percentile = 22.5
	99th percentile = 34.5
Slowest packet = 71915
Flit latency average = 14.177
	minimum = 11
	maximum = 57
	95th percentile = 22.5
	99th percentile = 34.5
Slowest flit = 71915
Fragmentation average = 0
	minimum = 0
	maximum = 0
Injected packet rate average = 0.325079
	minimum = 0.322833 (at node 0)
	maximum = 0.3295 (at node 2)
Accepted packet rate average = 0.324731
	minimum = 0.322542 (at node 4)
	maximum = 0.328958 (at node 6)
Injected flit rate average = 0.325079
	minimum = 0.322833 (at node 0)
	maximum = 0.3295 (at node 2)
Accepted flit rate average= 0.324731
	minimum = 0.322542 (at node 4)
	maximum = 0.328958 (at node 6)
Injected packet length average = 1
Accepted packet length average = 1
Total in-flight flits = 90 (90 measured)
====== Peak Queue Occupancy Statistics (Absolute Max) ======
  Overall Max VC Occupancy = 1
  Overall Max Buffer Occupancy = 2
latency change    = 0.0543828
throughput change = 0.0767626
Class 0:
Packet latency average = 22.0884
	minimum = 11
	maximum = 1115
	95th percentile = 61.5
	99th percentile = 212.5
Network latency average = 20.6855
	minimum = 11
	maximum = 1115
	95th percentile = 58.5
	99th percentile = 165.5
Slowest packet = 83533
Flit latency average = 20.6844
	minimum = 11
	maximum = 1115
	95th percentile = 58.5
	99th percentile = 165.5
Slowest flit = 83533
Fragmentation average = 0
	minimum = 0
	maximum = 0
Injected packet rate average = 0.349033
	minimum = 0.34537 (at node 7)
	maximum = 0.353444 (at node 2)
Accepted packet rate average = 0.347436
	minimum = 0.342741 (at node 5)
	maximum = 0.350296 (at node 0)
Injected flit rate average = 0.349033
	minimum = 0.34537 (at node 7)
	maximum = 0.353444 (at node 2)
Accepted flit rate average= 0.347436
	minimum = 0.342741 (at node 5)
	maximum = 0.350296 (at node 0)
Injected packet length average = 1
Accepted packet length average = 1
Total in-flight flits = 404 (404 measured)
====== Peak Queue Occupancy Statistics (Absolute Max) ======
  Overall Max VC Occupancy = 1
  Overall Max Buffer Occupancy = 48
latency change    = 0.358173
throughput change = 0.0653494
Class 0:
Packet latency average = 50.0392
	minimum = 11
	maximum = 1979
	95th percentile = 257.5
	99th percentile = 839.5
Network latency average = 30.1088
	minimum = 11
	maximum = 1691
	95th percentile = 95.5
	99th percentile = 324.5
Slowest packet = 90250
Flit latency average = 30.1065
	minimum = 11
	maximum = 1691
	95th percentile = 95.5
	99th percentile = 324.5
Slowest flit = 90160
Fragmentation average = 0
	minimum = 0
	maximum = 0
Injected packet rate average = 0.369822
	minimum = 0.360133 (at node 7)
	maximum = 0.374867 (at node 8)
Accepted packet rate average = 0.368326
	minimum = 0.358067 (at node 5)
	maximum = 0.374667 (at node 0)
Injected flit rate average = 0.369822
	minimum = 0.360133 (at node 7)
	maximum = 0.374867 (at node 8)
Accepted flit rate average= 0.368326
	minimum = 0.358067 (at node 5)
	maximum = 0.374667 (at node 0)
Injected packet length average = 1
Accepted packet length average = 1
Total in-flight flits = 420 (420 measured)
====== Peak Queue Occupancy Statistics (Absolute Max) ======
  Overall Max VC Occupancy = 1
  Overall Max Buffer Occupancy = 48
latency change    = 0.558579
throughput change = 0.0567153
Class 0:
Packet latency average = 96.0712
	minimum = 11
	maximum = 2419
	95th percentile = 825.5
	99th percentile = 999.5
Network latency average = 37.116
	minimum = 11
	maximum = 1691
	95th percentile = 137.5
	99th percentile = 438.5
Slowest packet = 90250
Flit latency average = 37.113
	minimum = 11
	maximum = 1691
	95th percentile = 137.5
	99th percentile = 437.5
Slowest flit = 90160
Fragmentation average = 0
	minimum = 0
	maximum = 0
Injected packet rate average = 0.386943
	minimum = 0.374606 (at node 6)
	maximum = 0.396091 (at node 8)
Accepted packet rate average = 0.385562
	minimum = 0.371 (at node 2)
	maximum = 0.395879 (at node 0)
Injected flit rate average = 0.386943
	minimum = 0.374606 (at node 6)
	maximum = 0.396091 (at node 8)
Accepted flit rate average= 0.385562
	minimum = 0.371 (at node 2)
	maximum = 0.395879 (at node 0)
Injected packet length average = 1
Accepted packet length average = 1
Total in-flight flits = 427 (427 measured)
====== Peak Queue Occupancy Statistics (Absolute Max) ======
  Overall Max VC Occupancy = 1
  Overall Max Buffer Occupancy = 48
latency change    = 0.479144
throughput change = 0.0447045
Class 0:
Packet latency average = 156.373
	minimum = 11
	maximum = 2722
	95th percentile = 999.5
	99th percentile = 999.5
Network latency average = 42.5631
	minimum = 11
	maximum = 1691
	95th percentile = 161.5
	99th percentile = 582.5
Slowest packet = 90250
Flit latency average = 42.5599
	minimum = 11
	maximum = 1691
	95th percentile = 161.5
	99th percentile = 582.5
Slowest flit = 90160
Fragmentation average = 0
	minimum = 0
	maximum = 0
Injected packet rate average = 0.40116
	minimum = 0.384556 (at node 7)
	maximum = 0.413472 (at node 5)
Accepted packet rate average = 0.399907
	minimum = 0.382639 (at node 3)
	maximum = 0.413306 (at node 7)
Injected flit rate average = 0.40116
	minimum = 0.384556 (at node 7)
	maximum = 0.413472 (at node 5)
Accepted flit rate average= 0.399907
	minimum = 0.382639 (at node 3)
	maximum = 0.413306 (at node 7)
Injected packet length average = 1
Accepted packet length average = 1
Total in-flight flits = 422 (422 measured)
====== Peak Queue Occupancy Statistics (Absolute Max) ======
  Overall Max VC Occupancy = 1
  Overall Max Buffer Occupancy = 48
latency change    = 0.385627
throughput change = 0.0358711
Class 0:
Packet latency average = 223.78
	minimum = 11
	maximum = 3457
	95th percentile = 999.5
	99th percentile = 999.5
Network latency average = 46.8761
	minimum = 11
	maximum = 1691
	95th percentile = 185.5
	99th percentile = 705.5
Slowest packet = 90250
Flit latency average = 46.8728
	minimum = 11
	maximum = 1691
	95th percentile = 185.5
	99th percentile = 705.5
Slowest flit = 90160
Fragmentation average = 0
	minimum = 0
	maximum = 0
Injected packet rate average = 0.413017
	minimum = 0.393487 (at node 7)
	maximum = 0.428615 (at node 5)
Accepted packet rate average = 0.411895
	minimum = 0.391154 (at node 6)
	maximum = 0.42841 (at node 7)
Injected flit rate average = 0.413017
	minimum = 0.393487 (at node 7)
	maximum = 0.428615 (at node 5)
Accepted flit rate average= 0.411895
	minimum = 0.391154 (at node 6)
	maximum = 0.42841 (at node 7)
Injected packet length average = 1
Accepted packet length average = 1
Total in-flight flits = 411 (411 measured)
====== Peak Queue Occupancy Statistics (Absolute Max) ======
  Overall Max VC Occupancy = 1
  Overall Max Buffer Occupancy = 48
latency change    = 0.301222
throughput change = 0.0291025
Class 0:
Packet latency average = 296.756
	minimum = 11
	maximum = 3751
	95th percentile = 999.5
	99th percentile = 999.5
Network latency average = 50.302
	minimum = 11
	maximum = 1691
	95th percentile = 195.5
	99th percentile = 820.5
Slowest packet = 90250
Flit latency average = 50.2986
	minimum = 11
	maximum = 1691
	95th percentile = 195.5
	99th percentile = 820.5
Slowest flit = 90160
Fragmentation average = 0
	minimum = 0
	maximum = 0
Injected packet rate average = 0.42346
	minimum = 0.401357 (at node 6)
	maximum = 0.442143 (at node 5)
Accepted packet rate average = 0.422386
	minimum = 0.398524 (at node 2)
	maximum = 0.441976 (at node 7)
Injected flit rate average = 0.42346
	minimum = 0.401357 (at node 6)
	maximum = 0.442143 (at node 5)
Accepted flit rate average= 0.422386
	minimum = 0.398524 (at node 2)
	maximum = 0.441976 (at node 7)
Injected packet length average = 1
Accepted packet length average = 1
Total in-flight flits = 425 (425 measured)
====== Peak Queue Occupancy Statistics (Absolute Max) ======
  Overall Max VC Occupancy = 1
  Overall Max Buffer Occupancy = 48
latency change    = 0.245912
throughput change = 0.024839
Class 0:
Packet latency average = 373.614
	minimum = 11
	maximum = 4247
	95th percentile = 999.5
	99th percentile = 999.5
Network latency average = 53.2192
	minimum = 11
	maximum = 1691
	95th percentile = 205.5
	99th percentile = 855.5
Slowest packet = 90250
Flit latency average = 53.2159
	minimum = 11
	maximum = 1691
	95th percentile = 205.5
	99th percentile = 855.5
Slowest flit = 90160
Fragmentation average = 0
	minimum = 0
	maximum = 0
Injected packet rate average = 0.432254
	minimum = 0.407311 (at node 1)
	maximum = 0.451644 (at node 5)
Accepted packet rate average = 0.431254
	minimum = 0.405822 (at node 5)
	maximum = 0.451467 (at node 7)
Injected flit rate average = 0.432254
	minimum = 0.407311 (at node 1)
	maximum = 0.451644 (at node 5)
Accepted flit rate average= 0.431254
	minimum = 0.405822 (at node 5)
	maximum = 0.451467 (at node 7)
Injected packet length average = 1
Accepted packet length average = 1
Total in-flight flits = 420 (420 measured)
====== Peak Queue Occupancy Statistics (Absolute Max) ======
  Overall Max VC Occupancy = 1
  Overall Max Buffer Occupancy = 48
latency change    = 0.205715
throughput change = 0.0205635
Class 0:
Packet latency average = 454.065
	minimum = 11
	maximum = 4770
	95th percentile = 999.5
	99th percentile = 999.5
Network latency average = 55.6741
	minimum = 11
	maximum = 1691
	95th percentile = 213.5
	99th percentile = 901.5
Slowest packet = 90250
Flit latency average = 55.6708
	minimum = 11
	maximum = 1691
	95th percentile = 213.5
	99th percentile = 901.5
Slowest flit = 90160
Fragmentation average = 0
	minimum = 0
	maximum = 0
Injected packet rate average = 0.439708
	minimum = 0.413833 (at node 2)
	maximum = 0.461104 (at node 5)
Accepted packet rate average = 0.438787
	minimum = 0.411292 (at node 6)
	maximum = 0.461021 (at node 7)
Injected flit rate average = 0.439708
	minimum = 0.413833 (at node 2)
	maximum = 0.461104 (at node 5)
Accepted flit rate average= 0.438787
	minimum = 0.411292 (at node 6)
	maximum = 0.461021 (at node 7)
Injected packet length average = 1
Accepted packet length average = 1
Total in-flight flits = 414 (414 measured)
====== Peak Queue Occupancy Statistics (Absolute Max) ======
  Overall Max VC Occupancy = 1
  Overall Max Buffer Occupancy = 48
latency change    = 0.177179
throughput change = 0.0171671
Class 0:
Packet latency average = 537.66
	minimum = 11
	maximum = 5262
	95th percentile = 999.5
	99th percentile = 999.5
Network latency average = 57.7005
	minimum = 11
	maximum = 1691
	95th percentile = 224.5
	99th percentile = 901.5
Slowest packet = 90250
Flit latency average = 57.6973
	minimum = 11
	maximum = 1691
	95th percentile = 224.5
	99th percentile = 901.5
Slowest flit = 90160
Fragmentation average = 0
	minimum = 0
	maximum = 0
Injected packet rate average = 0.446529
	minimum = 0.41851 (at node 6)
	maximum = 0.469549 (at node 5)
Accepted packet rate average = 0.445636
	minimum = 0.416176 (at node 2)
	maximum = 0.469412 (at node 7)
Injected flit rate average = 0.446529
	minimum = 0.41851 (at node 6)
	maximum = 0.469549 (at node 5)
Accepted flit rate average= 0.445636
	minimum = 0.416176 (at node 2)
	maximum = 0.469412 (at node 7)
Injected packet length average = 1
Accepted packet length average = 1
Total in-flight flits = 427 (427 measured)
====== Peak Queue Occupancy Statistics (Absolute Max) ======
  Overall Max VC Occupancy = 1
  Overall Max Buffer Occupancy = 48
latency change    = 0.15548
throughput change = 0.0153693
Class 0:
Packet latency average = 623.199
	minimum = 11
	maximum = 5703
	95th percentile = 999.5
	99th percentile = 999.5
Network latency average = 59.5241
	minimum = 11
	maximum = 1691
	95th percentile = 230.5
	99th percentile = 902.5
Slowest packet = 90250
Flit latency average = 59.521
	minimum = 11
	maximum = 1691
	95th percentile = 230.5
	99th percentile = 902.5
Slowest flit = 90160
Fragmentation average = 0
	minimum = 0
	maximum = 0
Injected packet rate average = 0.45266
	minimum = 0.422722 (at node 7)
	maximum = 0.477185 (at node 5)
Accepted packet rate average = 0.451833
	minimum = 0.421389 (at node 5)
	maximum = 0.477074 (at node 7)
Injected flit rate average = 0.45266
	minimum = 0.422722 (at node 7)
	maximum = 0.477185 (at node 5)
Accepted flit rate average= 0.451833
	minimum = 0.421389 (at node 5)
	maximum = 0.477074 (at node 7)
Injected packet length average = 1
Accepted packet length average = 1
Total in-flight flits = 417 (417 measured)
====== Peak Queue Occupancy Statistics (Absolute Max) ======
  Overall Max VC Occupancy = 1
  Overall Max Buffer Occupancy = 48
latency change    = 0.137258
throughput change = 0.0137156
Class 0:
Packet latency average = 709.776
	minimum = 11
	maximum = 6401
	95th percentile = 999.5
	99th percentile = 999.5
Network latency average = 61.0738
	minimum = 11
	maximum = 1691
	95th percentile = 236.5
	99th percentile = 907.5
Slowest packet = 90250
Flit latency average = 61.0709
	minimum = 11
	maximum = 1691
	95th percentile = 236.5
	99th percentile = 907.5
Slowest flit = 90160
Fragmentation average = 0
	minimum = 0
	maximum = 0
Injected packet rate average = 0.458115
	minimum = 0.426842 (at node 2)
	maximum = 0.483912 (at node 5)
Accepted packet rate average = 0.45732
	minimum = 0.424684 (at node 6)
	maximum = 0.483807 (at node 7)
Injected flit rate average = 0.458115
	minimum = 0.426842 (at node 2)
	maximum = 0.483912 (at node 5)
Accepted flit rate average= 0.45732
	minimum = 0.424684 (at node 6)
	maximum = 0.483807 (at node 7)
Injected packet length average = 1
Accepted packet length average = 1
Total in-flight flits = 425 (425 measured)
====== Peak Queue Occupancy Statistics (Absolute Max) ======
  Overall Max VC Occupancy = 1
  Overall Max Buffer Occupancy = 48
latency change    = 0.121978
throughput change = 0.0119968
Class 0:
Packet latency average = 798.474
	minimum = 11
	maximum = 6697
	95th percentile = 999.5
	99th percentile = 999.5
Network latency average = 62.4147
	minimum = 11
	maximum = 1691
	95th percentile = 239.5
	99th percentile = 925.5
Slowest packet = 90250
Flit latency average = 62.4119
	minimum = 11
	maximum = 1691
	95th percentile = 239.5
	99th percentile = 925.5
Slowest flit = 90160
Fragmentation average = 0
	minimum = 0
	maximum = 0
Injected packet rate average = 0.462957
	minimum = 0.4308 (at node 6)
	maximum = 0.489983 (at node 5)
Accepted packet rate average = 0.462213
	minimum = 0.428967 (at node 2)
	maximum = 0.4899 (at node 7)
Injected flit rate average = 0.462957
	minimum = 0.4308 (at node 6)
	maximum = 0.489983 (at node 5)
Accepted flit rate average= 0.462213
	minimum = 0.428967 (at node 2)
	maximum = 0.4899 (at node 7)
Injected packet length average = 1
Accepted packet length average = 1
Total in-flight flits = 420 (420 measured)
====== Peak Queue Occupancy Statistics (Absolute Max) ======
  Overall Max VC Occupancy = 1
  Overall Max Buffer Occupancy = 48
latency change    = 0.111085
throughput change = 0.0105866
Draining all recorded packets ...
Class 0:
Remaining flits: 251181 252415 253079 253403 253890 254188 254263 254388 254518 254537 [...] (422 flits)
Measured flits: 251181 252415 253079 253403 253890 254188 254263 254388 254518 254537 [...] (384 flits)
Class 0:
Remaining flits: 258680 258913 259082 259136 259153 259342 259370 259384 259408 259581 [...] (421 flits)
Measured flits: 258680 258913 259082 259136 259153 259342 259370 259384 259408 259581 [...] (385 flits)
Class 0:
Remaining flits: 263769 263857 264004 264057 264231 264247 264340 264482 264503 264619 [...] (421 flits)
Measured flits: 263769 263857 264004 264057 264231 264247 264340 264482 264503 264619 [...] (385 flits)
Class 0:
Remaining flits: 268652 268755 268810 268840 269262 269337 269363 269478 269538 269558 [...] (417 flits)
Measured flits: 268652 268755 268810 268840 269262 269337 269363 269478 269538 269558 [...] (386 flits)
Class 0:
Remaining flits: 273326 273573 273996 274040 274042 274052 274178 274281 274352 274383 [...] (428 flits)
Measured flits: 273326 273573 273996 274040 274042 274052 274178 274281 274352 274383 [...] (385 flits)
Class 0:
Remaining flits: 277842 278354 278359 278537 278549 278757 278788 278963 278996 279026 [...] (421 flits)
Measured flits: 277842 278354 278359 278537 278549 278757 278788 278963 278996 279026 [...] (386 flits)
Class 0:
Remaining flits: 283570 283571 283809 283924 284041 284127 284134 284172 284202 284285 [...] (418 flits)
Measured flits: 283570 283571 283809 283924 284041 284127 284134 284172 284202 284285 [...] (113 flits)
Draining remaining packets ...
Time taken is 74073 cycles
====== Overall Traffic Statistics ======
====== Traffic class 0 ======
Packet latency average = 1086.99 (1 samples)
	minimum = 11 (1 samples)
	maximum = 8042 (1 samples)
Network latency average = 69.577 (1 samples)
	minimum = 11 (1 samples)
	maximum = 1695 (1 samples)
Flit latency average = 65.7127 (1 samples)
	minimum = 11 (1 samples)
	maximum = 1695 (1 samples)
Fragmentation average = 0 (1 samples)
	minimum = 0 (1 samples)
	maximum = 0 (1 samples)
Injected packet rate average = 0.462957 (1 samples)
	minimum = 0.4308 (1 samples)
	maximum = 0.489983 (1 samples)
Accepted packet rate average = 0.462213 (1 samples)
	minimum = 0.428967 (1 samples)
	maximum = 0.4899 (1 samples)
Injected flit rate average = 0.462957 (1 samples)
	minimum = 0.4308 (1 samples)
	maximum = 0.489983 (1 samples)
Accepted flit rate average = 0.462213 (1 samples)
	minimum = 0.428967 (1 samples)
	maximum = 0.4899 (1 samples)
Injected packet size average = 1 (1 samples)
Accepted packet size average = 1 (1 samples)
Hops average = 3.66691 (1 samples)
Total run time 26.9891

