BEGIN Configuration File: D:\noc_huawei\noc\booksim2-noc_speedup_study\booksim2-noc_speedup_study\tests\data\results\fixed_perm_growth_models_perm_4_3_6_1_8_7_2_5_0_peak_0p6_current_defaults\tmp_configs\linear_scale_hybrid_xy_racke_s2205.config
num_vcs     = 48;
vc_buf_size = 16;
wait_for_tail_credit = 1;

vc_allocator = islip;
sw_allocator = islip;
alloc_iters  = 16;

credit_delay   = 2;
routing_delay  = 0;
vc_alloc_delay = 1;
sw_alloc_delay = 1;
st_final_delay = 1;

input_speedup     = 1;
output_speedup    = 1;
internal_speedup  = 2.0;

sim_type = latency;
latency_thres  = 100000.0;
sim_count      = 1;
queue_sample_period_cycles = 0;

topology = mesh;
k  = 3;
n  = 2;

hybrid_transition_mode = linear_prob;
hybrid_xy_low_threshold = 0.35;
hybrid_racke_high_threshold = 0.65;
hybrid_buffer_soft_threshold = 0.50;
hybrid_buffer_hard_threshold = 0.85;
hybrid_buffer_release_threshold = 0.35;
hybrid_rate_soft_threshold = 0.55;
hybrid_rate_hard_threshold = 0.90;
hybrid_rate_weight = 0.25;
hybrid_congestion_alpha = 0.25;
hybrid_racke_increase_step = 0.25;
hybrid_racke_decrease_step = 0.10;
hybrid_epoch_cycles = 200;
hybrid_hold_cycles = 600;
hybrid_enable_midflight_override = 1;
hybrid_feedback_delay_per_hop = 1;
hybrid_flow_increase_step = 0.20;
hybrid_flow_decrease_step = 0.08;
hybrid_flow_hard_threshold = 0.95;

packet_size = 1;


ordered_injection_coefficients = {0.1666666667,0.3333333333,0.5};
ordered_injection_phase_cycles = {1000,1000,1000};
ordered_injection_source_order = {4,0,7,2,8,1,5,3,6};
ordered_injection_flow_peak_rate = 0.60;
warmup_periods = 2;
custom_perm_array = {4,3,6,1,8,7,2,5,0};
injection_process = scheduled;
injection_rate = 0.6;
scheduled_default_phase_cycles = 3000;
perm_seed = 2205;
hybrid_flow_hotspot_alpha = 0.85;
hybrid_stats_window_cycles = 3000;
hybrid_flow_hotspot_threshold = 1.1;
sample_period = 3000;
scheduled_injection_rates = {0.05,0.1,0.15,0.2,0.25,0.3,0.35,0.4,0.45,0.5,0.55,0.6,0.6,0.6};
traffic = custom_perm;
routing_function = hybrid_xy_racke;
scheduled_phase_cycles = {3000,3000,3000,3000,3000,3000,3000,3000,3000,3000,3000,3000,3000,3000};
seed = 2205;
max_samples = 22;

END Configuration File: D:\noc_huawei\noc\booksim2-noc_speedup_study\booksim2-noc_speedup_study\tests\data\results\fixed_perm_growth_models_perm_4_3_6_1_8_7_2_5_0_peak_0p6_current_defaults\tmp_configs\linear_scale_hybrid_xy_racke_s2205.config
Class 0:
Packet latency average = 12.9993
	minimum = 11
	maximum = 18
	95th percentile = 17.5
	99th percentile = 17.5
Network latency average = 12.9993
	minimum = 11
	maximum = 18
	95th percentile = 17.5
	99th percentile = 17.5
Slowest packet = 289
Flit latency average = 12.9993
	minimum = 11
	maximum = 18
	95th percentile = 17.5
	99th percentile = 17.5
Slowest flit = 289
Fragmentation average = 0
	minimum = 0
	maximum = 0
Injected packet rate average = 0.0508889
	minimum = 0.0463333 (at node 2)
	maximum = 0.0556667 (at node 6)
Accepted packet rate average = 0.0507037
	minimum = 0.046 (at node 6)
	maximum = 0.0553333 (at node 2)
Injected flit rate average = 0.0508889
	minimum = 0.0463333 (at node 2)
	maximum = 0.0556667 (at node 6)
Accepted flit rate average= 0.0507037
	minimum = 0.046 (at node 6)
	maximum = 0.0553333 (at node 2)
Injected packet length average = 1
Accepted packet length average = 1
Total in-flight flits = 5 (0 measured)
====== Peak Queue Occupancy Statistics (Absolute Max) ======
  Overall Max VC Occupancy = 1
  Overall Max Buffer Occupancy = 1
latency change    = 1
throughput change = 1
Class 0:
Packet latency average = 13.0118
	minimum = 11
	maximum = 18
	95th percentile = 17.5
	99th percentile = 18.5
Network latency average = 13.0118
	minimum = 11
	maximum = 18
	95th percentile = 17.5
	99th percentile = 18.5
Slowest packet = 289
Flit latency average = 13.0118
	minimum = 11
	maximum = 18
	95th percentile = 17.5
	99th percentile = 18.5
Slowest flit = 289
Fragmentation average = 0
	minimum = 0
	maximum = 0
Injected packet rate average = 0.0756296
	minimum = 0.073 (at node 2)
	maximum = 0.0803333 (at node 6)
Accepted packet rate average = 0.0753519
	minimum = 0.072 (at node 6)
	maximum = 0.08 (at node 2)
Injected flit rate average = 0.0756296
	minimum = 0.073 (at node 2)
	maximum = 0.0803333 (at node 6)
Accepted flit rate average= 0.0753519
	minimum = 0.072 (at node 6)
	maximum = 0.08 (at node 2)
Injected packet length average = 1
Accepted packet length average = 1
Total in-flight flits = 15 (0 measured)
====== Peak Queue Occupancy Statistics (Absolute Max) ======
  Overall Max VC Occupancy = 1
  Overall Max Buffer Occupancy = 2
latency change    = 0.000962739
throughput change = 0.327107
Warmed up ...Time used is 6000 cycles
Class 0:
Packet latency average = 13.0857
	minimum = 11
	maximum = 19
	95th percentile = 17.5
	99th percentile = 18.5
Network latency average = 13.0857
	minimum = 11
	maximum = 19
	95th percentile = 17.5
	99th percentile = 18.5
Slowest packet = 5365
Flit latency average = 13.0898
	minimum = 11
	maximum = 19
	95th percentile = 17.5
	99th percentile = 18.5
Slowest flit = 5365
Fragmentation average = 0
	minimum = 0
	maximum = 0
Injected packet rate average = 0.150852
	minimum = 0.142333 (at node 0)
	maximum = 0.163667 (at node 6)
Accepted packet rate average = 0.150593
	minimum = 0.142 (at node 4)
	maximum = 0.163 (at node 2)
Injected flit rate average = 0.150852
	minimum = 0.142333 (at node 0)
	maximum = 0.163667 (at node 6)
Accepted flit rate average= 0.150593
	minimum = 0.142 (at node 4)
	maximum = 0.163 (at node 2)
Injected packet length average = 1
Accepted packet length average = 1
Total in-flight flits = 22 (22 measured)
====== Peak Queue Occupancy Statistics (Absolute Max) ======
  Overall Max VC Occupancy = 1
  Overall Max Buffer Occupancy = 2
latency change    = 0.00564445
throughput change = 0.499631
Class 0:
Packet latency average = 13.0567
	minimum = 11
	maximum = 19
	95th percentile = 17.5
	99th percentile = 18.5
Network latency average = 13.0567
	minimum = 11
	maximum = 19
	95th percentile = 17.5
	99th percentile = 18.5
Slowest packet = 5365
Flit latency average = 13.0586
	minimum = 11
	maximum = 19
	95th percentile = 17.5
	99th percentile = 18.5
Slowest flit = 5365
Fragmentation average = 0
	minimum = 0
	maximum = 0
Injected packet rate average = 0.174056
	minimum = 0.1665 (at node 4)
	maximum = 0.188833 (at node 5)
Accepted packet rate average = 0.173889
	minimum = 0.166333 (at node 8)
	maximum = 0.1885 (at node 7)
Injected flit rate average = 0.174056
	minimum = 0.1665 (at node 4)
	maximum = 0.188833 (at node 5)
Accepted flit rate average= 0.173889
	minimum = 0.166333 (at node 8)
	maximum = 0.1885 (at node 7)
Injected packet length average = 1
Accepted packet length average = 1
Total in-flight flits = 24 (24 measured)
====== Peak Queue Occupancy Statistics (Absolute Max) ======
  Overall Max VC Occupancy = 1
  Overall Max Buffer Occupancy = 2
latency change    = 0.00221427
throughput change = 0.133972
Class 0:
Packet latency average = 13.0854
	minimum = 11
	maximum = 20
	95th percentile = 17.5
	99th percentile = 18.5
Network latency average = 13.0854
	minimum = 11
	maximum = 20
	95th percentile = 17.5
	99th percentile = 18.5
Slowest packet = 17190
Flit latency average = 13.0864
	minimum = 11
	maximum = 20
	95th percentile = 17.5
	99th percentile = 18.5
Slowest flit = 17190
Fragmentation average = 0
	minimum = 0
	maximum = 0
Injected packet rate average = 0.197951
	minimum = 0.193222 (at node 3)
	maximum = 0.204 (at node 5)
Accepted packet rate average = 0.197765
	minimum = 0.193111 (at node 1)
	maximum = 0.203889 (at node 7)
Injected flit rate average = 0.197951
	minimum = 0.193222 (at node 3)
	maximum = 0.204 (at node 5)
Accepted flit rate average= 0.197765
	minimum = 0.193111 (at node 1)
	maximum = 0.203889 (at node 7)
Injected packet length average = 1
Accepted packet length average = 1
Total in-flight flits = 30 (30 measured)
====== Peak Queue Occupancy Statistics (Absolute Max) ======
  Overall Max VC Occupancy = 1
  Overall Max Buffer Occupancy = 2
latency change    = 0.00218618
throughput change = 0.120732
Class 0:
Packet latency average = 13.1125
	minimum = 11
	maximum = 21
	95th percentile = 17.5
	99th percentile = 18.5
Network latency average = 13.1125
	minimum = 11
	maximum = 21
	95th percentile = 17.5
	99th percentile = 18.5
Slowest packet = 21842
Flit latency average = 13.1131
	minimum = 11
	maximum = 21
	95th percentile = 17.5
	99th percentile = 18.5
Slowest flit = 21842
Fragmentation average = 0
	minimum = 0
	maximum = 0
Injected packet rate average = 0.22413
	minimum = 0.217 (at node 3)
	maximum = 0.228083 (at node 1)
Accepted packet rate average = 0.223981
	minimum = 0.216583 (at node 1)
	maximum = 0.227833 (at node 3)
Injected flit rate average = 0.22413
	minimum = 0.217 (at node 3)
	maximum = 0.228083 (at node 1)
Accepted flit rate average= 0.223981
	minimum = 0.216583 (at node 1)
	maximum = 0.227833 (at node 3)
Injected packet length average = 1
Accepted packet length average = 1
Total in-flight flits = 31 (31 measured)
====== Peak Queue Occupancy Statistics (Absolute Max) ======
  Overall Max VC Occupancy = 1
  Overall Max Buffer Occupancy = 2
latency change    = 0.0020681
throughput change = 0.117046
Class 0:
Packet latency average = 13.1639
	minimum = 11
	maximum = 24
	95th percentile = 18.5
	99th percentile = 19.5
Network latency average = 13.1639
	minimum = 11
	maximum = 24
	95th percentile = 18.5
	99th percentile = 19.5
Slowest packet = 37125
Flit latency average = 13.1644
	minimum = 11
	maximum = 24
	95th percentile = 18.5
	99th percentile = 19.5
Slowest flit = 37125
Fragmentation average = 0
	minimum = 0
	maximum = 0
Injected packet rate average = 0.249719
	minimum = 0.243733 (at node 3)
	maximum = 0.2546 (at node 6)
Accepted packet rate average = 0.249533
	minimum = 0.243667 (at node 1)
	maximum = 0.254133 (at node 2)
Injected flit rate average = 0.249719
	minimum = 0.243733 (at node 3)
	maximum = 0.2546 (at node 6)
Accepted flit rate average= 0.249533
	minimum = 0.243667 (at node 1)
	maximum = 0.254133 (at node 2)
Injected packet length average = 1
Accepted packet length average = 1
Total in-flight flits = 40 (40 measured)
====== Peak Queue Occupancy Statistics (Absolute Max) ======
  Overall Max VC Occupancy = 1
  Overall Max Buffer Occupancy = 2
latency change    = 0.00390938
throughput change = 0.102399
Class 0:
Packet latency average = 13.2314
	minimum = 11
	maximum = 24
	95th percentile = 18.5
	99th percentile = 19.5
Network latency average = 13.2314
	minimum = 11
	maximum = 24
	95th percentile = 18.5
	99th percentile = 19.5
Slowest packet = 37125
Flit latency average = 13.2317
	minimum = 11
	maximum = 24
	95th percentile = 18.5
	99th percentile = 19.5
Slowest flit = 37125
Fragmentation average = 0
	minimum = 0
	maximum = 0
Injected packet rate average = 0.274809
	minimum = 0.269556 (at node 7)
	maximum = 0.280944 (at node 6)
Accepted packet rate average = 0.274636
	minimum = 0.269333 (at node 5)
	maximum = 0.280611 (at node 2)
Injected flit rate average = 0.274809
	minimum = 0.269556 (at node 7)
	maximum = 0.280944 (at node 6)
Accepted flit rate average= 0.274636
	minimum = 0.269333 (at node 5)
	maximum = 0.280611 (at node 2)
Injected packet length average = 1
Accepted packet length average = 1
Total in-flight flits = 43 (43 measured)
====== Peak Queue Occupancy Statistics (Absolute Max) ======
  Overall Max VC Occupancy = 1
  Overall Max Buffer Occupancy = 2
latency change    = 0.00509933
throughput change = 0.0914028
Class 0:
Packet latency average = 13.409
	minimum = 11
	maximum = 32
	95th percentile = 18.5
	99th percentile = 21.5
Network latency average = 13.409
	minimum = 11
	maximum = 32
	95th percentile = 18.5
	99th percentile = 21.5
Slowest packet = 51664
Flit latency average = 13.4092
	minimum = 11
	maximum = 32
	95th percentile = 18.5
	99th percentile = 21.5
Slowest flit = 51664
Fragmentation average = 0
	minimum = 0
	maximum = 0
Injected packet rate average = 0.300418
	minimum = 0.295095 (at node 7)
	maximum = 0.305714 (at node 6)
Accepted packet rate average = 0.300185
	minimum = 0.294952 (at node 5)
	maximum = 0.305429 (at node 2)
Injected flit rate average = 0.300418
	minimum = 0.295095 (at node 7)
	maximum = 0.305714 (at node 6)
Accepted flit rate average= 0.300185
	minimum = 0.294952 (at node 5)
	maximum = 0.305429 (at node 2)
Injected packet length average = 1
Accepted packet length average = 1
Total in-flight flits = 59 (59 measured)
====== Peak Queue Occupancy Statistics (Absolute Max) ======
  Overall Max VC Occupancy = 1
  Overall Max Buffer Occupancy = 2
latency change    = 0.0132425
throughput change = 0.0851121
Class 0:
Packet latency average = 14.8498
	minimum = 11
	maximum = 101
	95th percentile = 24.5
	99th percentile = 58.5
Network latency average = 14.8498
	minimum = 11
	maximum = 101
	95th percentile = 24.5
	99th percentile = 58.5
Slowest packet = 71413
Flit latency average = 14.8497
	minimum = 11
	maximum = 101
	95th percentile = 24.5
	99th percentile = 58.5
Slowest flit = 71413
Fragmentation average = 0
	minimum = 0
	maximum = 0
Injected packet rate average = 0.325454
	minimum = 0.321167 (at node 3)
	maximum = 0.329917 (at node 6)
Accepted packet rate average = 0.325134
	minimum = 0.321 (at node 1)
	maximum = 0.328917 (at node 2)
Injected flit rate average = 0.325454
	minimum = 0.321167 (at node 3)
	maximum = 0.329917 (at node 6)
Accepted flit rate average= 0.325134
	minimum = 0.321 (at node 1)
	maximum = 0.328917 (at node 2)
Injected packet length average = 1
Accepted packet length average = 1
Total in-flight flits = 84 (84 measured)
====== Peak Queue Occupancy Statistics (Absolute Max) ======
  Overall Max VC Occupancy = 1
  Overall Max Buffer Occupancy = 18
latency change    = 0.0970268
throughput change = 0.0767347
Class 0:
Packet latency average = 19.637
	minimum = 11
	maximum = 426
	95th percentile = 64.5
	99th percentile = 127.5
Network latency average = 19.6251
	minimum = 11
	maximum = 426
	95th percentile = 64.5
	99th percentile = 127.5
Slowest packet = 84719
Flit latency average = 19.6241
	minimum = 11
	maximum = 426
	95th percentile = 64.5
	99th percentile = 127.5
Slowest flit = 84719
Fragmentation average = 0
	minimum = 0
	maximum = 0
Injected packet rate average = 0.350424
	minimum = 0.346185 (at node 3)
	maximum = 0.353815 (at node 4)
Accepted packet rate average = 0.349601
	minimum = 0.345963 (at node 1)
	maximum = 0.35363 (at node 8)
Injected flit rate average = 0.350424
	minimum = 0.346185 (at node 3)
	maximum = 0.353815 (at node 4)
Accepted flit rate average= 0.349601
	minimum = 0.345963 (at node 1)
	maximum = 0.35363 (at node 8)
Injected packet length average = 1
Accepted packet length average = 1
Total in-flight flits = 215 (215 measured)
====== Peak Queue Occupancy Statistics (Absolute Max) ======
  Overall Max VC Occupancy = 1
  Overall Max Buffer Occupancy = 48
latency change    = 0.243783
throughput change = 0.0699843
Class 0:
Packet latency average = 25.4618
	minimum = 11
	maximum = 1332
	95th percentile = 94.5
	99th percentile = 187.5
Network latency average = 25.2291
	minimum = 11
	maximum = 1332
	95th percentile = 92.5
	99th percentile = 186.5
Slowest packet = 92297
Flit latency average = 25.2275
	minimum = 11
	maximum = 1332
	95th percentile = 92.5
	99th percentile = 186.5
Slowest flit = 92297
Fragmentation average = 0
	minimum = 0
	maximum = 0
Injected packet rate average = 0.375433
	minimum = 0.3703 (at node 3)
	maximum = 0.379 (at node 6)
Accepted packet rate average = 0.374181
	minimum = 0.37 (at node 1)
	maximum = 0.377467 (at node 8)
Injected flit rate average = 0.375433
	minimum = 0.3703 (at node 3)
	maximum = 0.379 (at node 6)
Accepted flit rate average= 0.374181
	minimum = 0.37 (at node 1)
	maximum = 0.377467 (at node 8)
Injected packet length average = 1
Accepted packet length average = 1
Total in-flight flits = 353 (353 measured)
====== Peak Queue Occupancy Statistics (Absolute Max) ======
  Overall Max VC Occupancy = 1
  Overall Max Buffer Occupancy = 48
latency change    = 0.228769
throughput change = 0.0656918
Class 0:
Packet latency average = 30.6349
	minimum = 11
	maximum = 1332
	95th percentile = 112.5
	99th percentile = 258.5
Network latency average = 30.1976
	minimum = 11
	maximum = 1332
	95th percentile = 108.5
	99th percentile = 257.5
Slowest packet = 92297
Flit latency average = 30.1956
	minimum = 11
	maximum = 1332
	95th percentile = 108.5
	99th percentile = 256.5
Slowest flit = 92297
Fragmentation average = 0
	minimum = 0
	maximum = 0
Injected packet rate average = 0.396141
	minimum = 0.390788 (at node 3)
	maximum = 0.400242 (at node 6)
Accepted packet rate average = 0.394963
	minimum = 0.389515 (at node 1)
	maximum = 0.398939 (at node 2)
Injected flit rate average = 0.396141
	minimum = 0.390788 (at node 3)
	maximum = 0.400242 (at node 6)
Accepted flit rate average= 0.394963
	minimum = 0.389515 (at node 1)
	maximum = 0.398939 (at node 2)
Injected packet length average = 1
Accepted packet length average = 1
Total in-flight flits = 365 (365 measured)
====== Peak Queue Occupancy Statistics (Absolute Max) ======
  Overall Max VC Occupancy = 1
  Overall Max Buffer Occupancy = 48
latency change    = 0.168862
throughput change = 0.0526163
Class 0:
Packet latency average = 34.0711
	minimum = 11
	maximum = 1332
	95th percentile = 125.5
	99th percentile = 296.5
Network latency average = 33.5948
	minimum = 11
	maximum = 1332
	95th percentile = 120.5
	99th percentile = 295.5
Slowest packet = 92297
Flit latency average = 33.5926
	minimum = 11
	maximum = 1332
	95th percentile = 120.5
	99th percentile = 295.5
Slowest flit = 92297
Fragmentation average = 0
	minimum = 0
	maximum = 0
Injected packet rate average = 0.413188
	minimum = 0.407583 (at node 3)
	maximum = 0.417083 (at node 6)
Accepted packet rate average = 0.412497
	minimum = 0.4075 (at node 1)
	maximum = 0.415917 (at node 2)
Injected flit rate average = 0.413188
	minimum = 0.407583 (at node 3)
	maximum = 0.417083 (at node 6)
Accepted flit rate average= 0.412497
	minimum = 0.4075 (at node 1)
	maximum = 0.415917 (at node 2)
Injected packet length average = 1
Accepted packet length average = 1
Total in-flight flits = 239 (239 measured)
====== Peak Queue Occupancy Statistics (Absolute Max) ======
  Overall Max VC Occupancy = 1
  Overall Max Buffer Occupancy = 48
latency change    = 0.100854
throughput change = 0.0425069
Class 0:
Packet latency average = 36.2865
	minimum = 11
	maximum = 1332
	95th percentile = 133.5
	99th percentile = 312.5
Network latency average = 35.7987
	minimum = 11
	maximum = 1332
	95th percentile = 128.5
	99th percentile = 309.5
Slowest packet = 92297
Flit latency average = 35.7965
	minimum = 11
	maximum = 1332
	95th percentile = 128.5
	99th percentile = 309.5
Slowest flit = 92297
Fragmentation average = 0
	minimum = 0
	maximum = 0
Injected packet rate average = 0.427444
	minimum = 0.421564 (at node 3)
	maximum = 0.431872 (at node 6)
Accepted packet rate average = 0.426687
	minimum = 0.421462 (at node 1)
	maximum = 0.430333 (at node 2)
Injected flit rate average = 0.427444
	minimum = 0.421564 (at node 3)
	maximum = 0.431872 (at node 6)
Accepted flit rate average= 0.426687
	minimum = 0.421462 (at node 1)
	maximum = 0.430333 (at node 2)
Injected packet length average = 1
Accepted packet length average = 1
Total in-flight flits = 281 (281 measured)
====== Peak Queue Occupancy Statistics (Absolute Max) ======
  Overall Max VC Occupancy = 1
  Overall Max Buffer Occupancy = 48
latency change    = 0.0610522
throughput change = 0.0332555
Class 0:
Packet latency average = 37.9304
	minimum = 11
	maximum = 1332
	95th percentile = 138.5
	99th percentile = 320.5
Network latency average = 37.4565
	minimum = 11
	maximum = 1332
	95th percentile = 134.5
	99th percentile = 318.5
Slowest packet = 92297
Flit latency average = 37.4544
	minimum = 11
	maximum = 1332
	95th percentile = 134.5
	99th percentile = 318.5
Slowest flit = 92297
Fragmentation average = 0
	minimum = 0
	maximum = 0
Injected packet rate average = 0.439844
	minimum = 0.433905 (at node 3)
	maximum = 0.443452 (at node 6)
Accepted packet rate average = 0.439119
	minimum = 0.433786 (at node 1)
	maximum = 0.442167 (at node 7)
Injected flit rate average = 0.439844
	minimum = 0.433905 (at node 3)
	maximum = 0.443452 (at node 6)
Accepted flit rate average= 0.439119
	minimum = 0.433786 (at node 1)
	maximum = 0.442167 (at node 7)
Injected packet length average = 1
Accepted packet length average = 1
Total in-flight flits = 289 (289 measured)
====== Peak Queue Occupancy Statistics (Absolute Max) ======
  Overall Max VC Occupancy = 1
  Overall Max Buffer Occupancy = 48
latency change    = 0.0433409
throughput change = 0.0283122
Class 0:
Packet latency average = 39.5397
	minimum = 11
	maximum = 1332
	95th percentile = 144.5
	99th percentile = 332.5
Network latency average = 39.0982
	minimum = 11
	maximum = 1332
	95th percentile = 140.5
	99th percentile = 330.5
Slowest packet = 92297
Flit latency average = 39.0961
	minimum = 11
	maximum = 1332
	95th percentile = 140.5
	99th percentile = 330.5
Slowest flit = 92297
Fragmentation average = 0
	minimum = 0
	maximum = 0
Injected packet rate average = 0.450785
	minimum = 0.445244 (at node 3)
	maximum = 0.453733 (at node 6)
Accepted packet rate average = 0.45003
	minimum = 0.445111 (at node 1)
	maximum = 0.453289 (at node 7)
Injected flit rate average = 0.450785
	minimum = 0.445244 (at node 3)
	maximum = 0.453733 (at node 6)
Accepted flit rate average= 0.45003
	minimum = 0.445111 (at node 1)
	maximum = 0.453289 (at node 7)
Injected packet length average = 1
Accepted packet length average = 1
Total in-flight flits = 321 (321 measured)
====== Peak Queue Occupancy Statistics (Absolute Max) ======
  Overall Max VC Occupancy = 1
  Overall Max Buffer Occupancy = 48
latency change    = 0.0407008
throughput change = 0.0242441
Class 0:
Packet latency average = 40.2124
	minimum = 11
	maximum = 1332
	95th percentile = 146.5
	99th percentile = 329.5
Network latency average = 39.7648
	minimum = 11
	maximum = 1332
	95th percentile = 143.5
	99th percentile = 327.5
Slowest packet = 92297
Flit latency average = 39.7628
	minimum = 11
	maximum = 1332
	95th percentile = 143.5
	99th percentile = 327.5
Slowest flit = 92297
Fragmentation average = 0
	minimum = 0
	maximum = 0
Injected packet rate average = 0.459979
	minimum = 0.455375 (at node 3)
	maximum = 0.462917 (at node 6)
Accepted packet rate average = 0.459324
	minimum = 0.45525 (at node 1)
	maximum = 0.462292 (at node 8)
Injected flit rate average = 0.459979
	minimum = 0.455375 (at node 3)
	maximum = 0.462917 (at node 6)
Accepted flit rate average= 0.459324
	minimum = 0.45525 (at node 1)
	maximum = 0.462292 (at node 8)
Injected packet length average = 1
Accepted packet length average = 1
Total in-flight flits = 298 (298 measured)
====== Peak Queue Occupancy Statistics (Absolute Max) ======
  Overall Max VC Occupancy = 1
  Overall Max Buffer Occupancy = 48
latency change    = 0.0167285
throughput change = 0.020235
Draining all recorded packets ...
Draining remaining packets ...
Time taken is 54528 cycles
====== Overall Traffic Statistics ======
====== Traffic class 0 ======
Packet latency average = 40.3773 (1 samples)
	minimum = 11 (1 samples)
	maximum = 1332 (1 samples)
Network latency average = 39.9287 (1 samples)
	minimum = 11 (1 samples)
	maximum = 1332 (1 samples)
Flit latency average = 40.0214 (1 samples)
	minimum = 11 (1 samples)
	maximum = 1332 (1 samples)
Fragmentation average = 0 (1 samples)
	minimum = 0 (1 samples)
	maximum = 0 (1 samples)
Injected packet rate average = 0.459979 (1 samples)
	minimum = 0.455375 (1 samples)
	maximum = 0.462917 (1 samples)
Accepted packet rate average = 0.459324 (1 samples)
	minimum = 0.45525 (1 samples)
	maximum = 0.462292 (1 samples)
Injected flit rate average = 0.459979 (1 samples)
	minimum = 0.455375 (1 samples)
	maximum = 0.462917 (1 samples)
Accepted flit rate average = 0.459324 (1 samples)
	minimum = 0.45525 (1 samples)
	maximum = 0.462292 (1 samples)
Injected packet size average = 1 (1 samples)
Accepted packet size average = 1 (1 samples)
Hops average = 3.76273 (1 samples)
Total run time 12.6105
====== Hybrid Routing Split Statistics ======
XY packets = 159513
Racke packets = 45502
XY fraction = 0.778055
Racke fraction = 0.221945
Flow (0 -> 4) alpha=0.496528 xy_packets=17339 racke_packets=5413 racke_fraction=0.237913
Flow (1 -> 3) alpha=0.496874 xy_packets=17132 racke_packets=5545 racke_fraction=0.244521
Flow (2 -> 6) alpha=0.496528 xy_packets=17261 racke_packets=5589 racke_fraction=0.244595
Flow (3 -> 1) alpha=0.496528 xy_packets=17677 racke_packets=4890 racke_fraction=0.216688
Flow (4 -> 8) alpha=0.545119 xy_packets=18894 racke_packets=4002 racke_fraction=0.17479
Flow (5 -> 7) alpha=0.271731 xy_packets=19440 racke_packets=3445 racke_fraction=0.150535
Flow (6 -> 2) alpha=0.545122 xy_packets=17337 racke_packets=5620 racke_fraction=0.244806
Flow (7 -> 5) alpha=0.545122 xy_packets=17242 racke_packets=5470 racke_fraction=0.240842
Flow (8 -> 0) alpha=0.545122 xy_packets=17191 racke_packets=5528 racke_fraction=0.243321
====== Hybrid Routing Window Statistics ======
Window [0,3000) xy_packets=1374 racke_packets=0 xy_fraction=1
Window [3000,6000) xy_packets=2710 racke_packets=0 xy_fraction=1
Window [6000,9000) xy_packets=4073 racke_packets=0 xy_fraction=1
Window [9000,12000) xy_packets=5326 racke_packets=0 xy_fraction=1
Window [12000,15000) xy_packets=6635 racke_packets=0 xy_fraction=1
Window [15000,18000) xy_packets=8172 racke_packets=0 xy_fraction=1
Window [18000,21000) xy_packets=9506 racke_packets=0 xy_fraction=1
Window [21000,24000) xy_packets=10807 racke_packets=0 xy_fraction=1
Window [24000,27000) xy_packets=12260 racke_packets=0 xy_fraction=1
Window [27000,30000) xy_packets=13423 racke_packets=96 xy_fraction=0.992899
Window [30000,33000) xy_packets=12494 racke_packets=2361 xy_fraction=0.841064
Window [33000,36000) xy_packets=10527 racke_packets=5687 xy_fraction=0.649254
Window [36000,39000) xy_packets=9821 racke_packets=6466 xy_fraction=0.602996
Window [39000,42000) xy_packets=9886 racke_packets=6333 xy_fraction=0.609532
Window [42000,45000) xy_packets=10343 racke_packets=5817 xy_fraction=0.640037
Window [45000,48000) xy_packets=10764 racke_packets=5464 xy_fraction=0.663298
Window [48000,51000) xy_packets=10146 racke_packets=6161 xy_fraction=0.622187
Window [51000,54000) xy_packets=10053 racke_packets=6090 xy_fraction=0.622747
Window [54000,57000) xy_packets=1193 racke_packets=1027 xy_fraction=0.537387

