BEGIN Configuration File: D:\noc_huawei\noc\booksim2-noc_speedup_study\booksim2-noc_speedup_study\tests\data\results\fixed_perm_growth_models_perm_4_3_6_1_8_7_2_5_0_peak_0p6_current_defaults\tmp_configs\linear_scale_dim_order_s2203.config
num_vcs     = 48;
vc_buf_size = 16;
wait_for_tail_credit = 1;

vc_allocator = islip;
sw_allocator = islip;
alloc_iters  = 16;

credit_delay   = 2;
routing_delay  = 0;
vc_alloc_delay = 1;
sw_alloc_delay = 1;
st_final_delay = 1;

input_speedup     = 1;
output_speedup    = 1;
internal_speedup  = 2.0;

sim_type = latency;
latency_thres  = 100000.0;
sim_count      = 1;
queue_sample_period_cycles = 0;

topology = mesh;
k  = 3;
n  = 2;

hybrid_transition_mode = linear_prob;
hybrid_xy_low_threshold = 0.35;
hybrid_racke_high_threshold = 0.65;
hybrid_buffer_soft_threshold = 0.50;
hybrid_buffer_hard_threshold = 0.85;
hybrid_buffer_release_threshold = 0.35;
hybrid_rate_soft_threshold = 0.55;
hybrid_rate_hard_threshold = 0.90;
hybrid_rate_weight = 0.25;
hybrid_congestion_alpha = 0.25;
hybrid_racke_increase_step = 0.25;
hybrid_racke_decrease_step = 0.10;
hybrid_epoch_cycles = 200;
hybrid_hold_cycles = 600;
hybrid_enable_midflight_override = 1;
hybrid_feedback_delay_per_hop = 1;
hybrid_flow_increase_step = 0.20;
hybrid_flow_decrease_step = 0.08;
hybrid_flow_hard_threshold = 0.95;

packet_size = 1;


ordered_injection_coefficients = {0.1666666667,0.3333333333,0.5};
ordered_injection_phase_cycles = {1000,1000,1000};
ordered_injection_source_order = {4,0,7,2,8,1,5,3,6};
ordered_injection_flow_peak_rate = 0.60;
warmup_periods = 2;
custom_perm_array = {4,3,6,1,8,7,2,5,0};
injection_process = scheduled;
injection_rate = 0.6;
scheduled_default_phase_cycles = 3000;
perm_seed = 2203;
hybrid_flow_hotspot_alpha = 0.85;
hybrid_stats_window_cycles = 3000;
hybrid_flow_hotspot_threshold = 1.1;
sample_period = 3000;
scheduled_injection_rates = {0.05,0.1,0.15,0.2,0.25,0.3,0.35,0.4,0.45,0.5,0.55,0.6,0.6,0.6};
traffic = custom_perm;
routing_function = dim_order;
scheduled_phase_cycles = {3000,3000,3000,3000,3000,3000,3000,3000,3000,3000,3000,3000,3000,3000};
seed = 2203;
max_samples = 22;

END Configuration File: D:\noc_huawei\noc\booksim2-noc_speedup_study\booksim2-noc_speedup_study\tests\data\results\fixed_perm_growth_models_perm_4_3_6_1_8_7_2_5_0_peak_0p6_current_defaults\tmp_configs\linear_scale_dim_order_s2203.config
Class 0:
Packet latency average = 12.987
	minimum = 11
	maximum = 18
	95th percentile = 17.5
	99th percentile = 17.5
Network latency average = 12.987
	minimum = 11
	maximum = 18
	95th percentile = 17.5
	99th percentile = 17.5
Slowest packet = 10
Flit latency average = 12.987
	minimum = 11
	maximum = 18
	95th percentile = 17.5
	99th percentile = 17.5
Slowest flit = 10
Fragmentation average = 0
	minimum = 0
	maximum = 0
Injected packet rate average = 0.0513704
	minimum = 0.0443333 (at node 2)
	maximum = 0.0586667 (at node 6)
Accepted packet rate average = 0.0511111
	minimum = 0.044 (at node 6)
	maximum = 0.0583333 (at node 2)
Injected flit rate average = 0.0513704
	minimum = 0.0443333 (at node 2)
	maximum = 0.0586667 (at node 6)
Accepted flit rate average= 0.0511111
	minimum = 0.044 (at node 6)
	maximum = 0.0583333 (at node 2)
Injected packet length average = 1
Accepted packet length average = 1
Total in-flight flits = 7 (0 measured)
====== Peak Queue Occupancy Statistics (Absolute Max) ======
  Overall Max VC Occupancy = 1
  Overall Max Buffer Occupancy = 2
latency change    = 1
throughput change = 1
Class 0:
Packet latency average = 12.9868
	minimum = 11
	maximum = 19
	95th percentile = 17.5
	99th percentile = 18.5
Network latency average = 12.9868
	minimum = 11
	maximum = 19
	95th percentile = 17.5
	99th percentile = 18.5
Slowest packet = 1545
Flit latency average = 12.9868
	minimum = 11
	maximum = 19
	95th percentile = 17.5
	99th percentile = 18.5
Slowest flit = 1545
Fragmentation average = 0
	minimum = 0
	maximum = 0
Injected packet rate average = 0.0757963
	minimum = 0.0723333 (at node 1)
	maximum = 0.0813333 (at node 5)
Accepted packet rate average = 0.0756296
	minimum = 0.0723333 (at node 3)
	maximum = 0.0811667 (at node 7)
Injected flit rate average = 0.0757963
	minimum = 0.0723333 (at node 1)
	maximum = 0.0813333 (at node 5)
Accepted flit rate average= 0.0756296
	minimum = 0.0723333 (at node 3)
	maximum = 0.0811667 (at node 7)
Injected packet length average = 1
Accepted packet length average = 1
Total in-flight flits = 9 (0 measured)
====== Peak Queue Occupancy Statistics (Absolute Max) ======
  Overall Max VC Occupancy = 1
  Overall Max Buffer Occupancy = 2
latency change    = 1.37719e-05
throughput change = 0.324192
Warmed up ...Time used is 6000 cycles
Class 0:
Packet latency average = 13.0223
	minimum = 11
	maximum = 19
	95th percentile = 17.5
	99th percentile = 18.5
Network latency average = 13.0223
	minimum = 11
	maximum = 19
	95th percentile = 17.5
	99th percentile = 18.5
Slowest packet = 4726
Flit latency average = 13.0223
	minimum = 11
	maximum = 19
	95th percentile = 17.5
	99th percentile = 18.5
Slowest flit = 4726
Fragmentation average = 0
	minimum = 0
	maximum = 0
Injected packet rate average = 0.153074
	minimum = 0.145333 (at node 1)
	maximum = 0.163333 (at node 5)
Accepted packet rate average = 0.152926
	minimum = 0.144667 (at node 3)
	maximum = 0.163333 (at node 7)
Injected flit rate average = 0.153074
	minimum = 0.145333 (at node 1)
	maximum = 0.163333 (at node 5)
Accepted flit rate average= 0.152926
	minimum = 0.144667 (at node 3)
	maximum = 0.163333 (at node 7)
Injected packet length average = 1
Accepted packet length average = 1
Total in-flight flits = 13 (13 measured)
====== Peak Queue Occupancy Statistics (Absolute Max) ======
  Overall Max VC Occupancy = 1
  Overall Max Buffer Occupancy = 2
latency change    = 0.00273011
throughput change = 0.505449
Class 0:
Packet latency average = 13.0779
	minimum = 11
	maximum = 19
	95th percentile = 17.5
	99th percentile = 18.5
Network latency average = 13.0779
	minimum = 11
	maximum = 19
	95th percentile = 17.5
	99th percentile = 18.5
Slowest packet = 4726
Flit latency average = 13.0778
	minimum = 11
	maximum = 19
	95th percentile = 17.5
	99th percentile = 18.5
Slowest flit = 4726
Fragmentation average = 0
	minimum = 0
	maximum = 0
Injected packet rate average = 0.177148
	minimum = 0.168833 (at node 0)
	maximum = 0.183167 (at node 8)
Accepted packet rate average = 0.177037
	minimum = 0.168833 (at node 4)
	maximum = 0.183333 (at node 0)
Injected flit rate average = 0.177148
	minimum = 0.168833 (at node 0)
	maximum = 0.183167 (at node 8)
Accepted flit rate average= 0.177037
	minimum = 0.168833 (at node 4)
	maximum = 0.183333 (at node 0)
Injected packet length average = 1
Accepted packet length average = 1
Total in-flight flits = 15 (15 measured)
====== Peak Queue Occupancy Statistics (Absolute Max) ======
  Overall Max VC Occupancy = 1
  Overall Max Buffer Occupancy = 2
latency change    = 0.00424896
throughput change = 0.136192
Class 0:
Packet latency average = 13.0926
	minimum = 11
	maximum = 21
	95th percentile = 17.5
	99th percentile = 18.5
Network latency average = 13.0926
	minimum = 11
	maximum = 21
	95th percentile = 17.5
	99th percentile = 18.5
Slowest packet = 17149
Flit latency average = 13.0926
	minimum = 11
	maximum = 21
	95th percentile = 17.5
	99th percentile = 18.5
Slowest flit = 17149
Fragmentation average = 0
	minimum = 0
	maximum = 0
Injected packet rate average = 0.202395
	minimum = 0.195444 (at node 6)
	maximum = 0.208 (at node 8)
Accepted packet rate average = 0.20216
	minimum = 0.195 (at node 2)
	maximum = 0.207778 (at node 0)
Injected flit rate average = 0.202395
	minimum = 0.195444 (at node 6)
	maximum = 0.208 (at node 8)
Accepted flit rate average= 0.20216
	minimum = 0.195 (at node 2)
	maximum = 0.207778 (at node 0)
Injected packet length average = 1
Accepted packet length average = 1
Total in-flight flits = 28 (28 measured)
====== Peak Queue Occupancy Statistics (Absolute Max) ======
  Overall Max VC Occupancy = 1
  Overall Max Buffer Occupancy = 2
latency change    = 0.00112532
throughput change = 0.124275
Class 0:
Packet latency average = 13.1273
	minimum = 11
	maximum = 21
	95th percentile = 17.5
	99th percentile = 18.5
Network latency average = 13.1273
	minimum = 11
	maximum = 21
	95th percentile = 17.5
	99th percentile = 18.5
Slowest packet = 17149
Flit latency average = 13.1272
	minimum = 11
	maximum = 21
	95th percentile = 17.5
	99th percentile = 18.5
Slowest flit = 17149
Fragmentation average = 0
	minimum = 0
	maximum = 0
Injected packet rate average = 0.227157
	minimum = 0.219167 (at node 6)
	maximum = 0.234333 (at node 8)
Accepted packet rate average = 0.226944
	minimum = 0.218833 (at node 2)
	maximum = 0.234167 (at node 0)
Injected flit rate average = 0.227157
	minimum = 0.219167 (at node 6)
	maximum = 0.234333 (at node 8)
Accepted flit rate average= 0.226944
	minimum = 0.218833 (at node 2)
	maximum = 0.234167 (at node 0)
Injected packet length average = 1
Accepted packet length average = 1
Total in-flight flits = 32 (32 measured)
====== Peak Queue Occupancy Statistics (Absolute Max) ======
  Overall Max VC Occupancy = 1
  Overall Max Buffer Occupancy = 2
latency change    = 0.00263795
throughput change = 0.109207
Class 0:
Packet latency average = 13.1607
	minimum = 11
	maximum = 22
	95th percentile = 18.5
	99th percentile = 19.5
Network latency average = 13.1607
	minimum = 11
	maximum = 22
	95th percentile = 18.5
	99th percentile = 19.5
Slowest packet = 33722
Flit latency average = 13.1606
	minimum = 11
	maximum = 22
	95th percentile = 18.5
	99th percentile = 19.5
Slowest flit = 33722
Fragmentation average = 0
	minimum = 0
	maximum = 0
Injected packet rate average = 0.252178
	minimum = 0.2454 (at node 6)
	maximum = 0.259333 (at node 8)
Accepted packet rate average = 0.251904
	minimum = 0.245133 (at node 2)
	maximum = 0.259 (at node 0)
Injected flit rate average = 0.252178
	minimum = 0.2454 (at node 6)
	maximum = 0.259333 (at node 8)
Accepted flit rate average= 0.251904
	minimum = 0.245133 (at node 2)
	maximum = 0.259 (at node 0)
Injected packet length average = 1
Accepted packet length average = 1
Total in-flight flits = 46 (46 measured)
====== Peak Queue Occupancy Statistics (Absolute Max) ======
  Overall Max VC Occupancy = 1
  Overall Max Buffer Occupancy = 2
latency change    = 0.00253982
throughput change = 0.0990825
Class 0:
Packet latency average = 13.248
	minimum = 11
	maximum = 26
	95th percentile = 18.5
	99th percentile = 19.5
Network latency average = 13.248
	minimum = 11
	maximum = 26
	95th percentile = 18.5
	99th percentile = 19.5
Slowest packet = 42617
Flit latency average = 13.2479
	minimum = 11
	maximum = 26
	95th percentile = 18.5
	99th percentile = 19.5
Slowest flit = 42617
Fragmentation average = 0
	minimum = 0
	maximum = 0
Injected packet rate average = 0.276932
	minimum = 0.273444 (at node 1)
	maximum = 0.283444 (at node 8)
Accepted packet rate average = 0.276654
	minimum = 0.273056 (at node 3)
	maximum = 0.283167 (at node 0)
Injected flit rate average = 0.276932
	minimum = 0.273444 (at node 1)
	maximum = 0.283444 (at node 8)
Accepted flit rate average= 0.276654
	minimum = 0.273056 (at node 3)
	maximum = 0.283167 (at node 0)
Injected packet length average = 1
Accepted packet length average = 1
Total in-flight flits = 54 (54 measured)
====== Peak Queue Occupancy Statistics (Absolute Max) ======
  Overall Max VC Occupancy = 1
  Overall Max Buffer Occupancy = 2
latency change    = 0.00658968
throughput change = 0.0894641
Class 0:
Packet latency average = 13.3637
	minimum = 11
	maximum = 29
	95th percentile = 18.5
	99th percentile = 21.5
Network latency average = 13.3637
	minimum = 11
	maximum = 29
	95th percentile = 18.5
	99th percentile = 21.5
Slowest packet = 50279
Flit latency average = 13.3637
	minimum = 11
	maximum = 29
	95th percentile = 18.5
	99th percentile = 21.5
Slowest flit = 50279
Fragmentation average = 0
	minimum = 0
	maximum = 0
Injected packet rate average = 0.302053
	minimum = 0.294905 (at node 1)
	maximum = 0.30881 (at node 8)
Accepted packet rate average = 0.301794
	minimum = 0.294762 (at node 3)
	maximum = 0.308619 (at node 0)
Injected flit rate average = 0.302053
	minimum = 0.294905 (at node 1)
	maximum = 0.30881 (at node 8)
Accepted flit rate average= 0.301794
	minimum = 0.294762 (at node 3)
	maximum = 0.308619 (at node 0)
Injected packet length average = 1
Accepted packet length average = 1
Total in-flight flits = 58 (58 measured)
====== Peak Queue Occupancy Statistics (Absolute Max) ======
  Overall Max VC Occupancy = 1
  Overall Max Buffer Occupancy = 2
latency change    = 0.00866168
throughput change = 0.0832997
Class 0:
Packet latency average = 14.9017
	minimum = 11
	maximum = 84
	95th percentile = 24.5
	99th percentile = 55.5
Network latency average = 14.9017
	minimum = 11
	maximum = 84
	95th percentile = 24.5
	99th percentile = 55.5
Slowest packet = 70471
Flit latency average = 14.9015
	minimum = 11
	maximum = 84
	95th percentile = 24.5
	99th percentile = 55.5
Slowest flit = 70471
Fragmentation average = 0
	minimum = 0
	maximum = 0
Injected packet rate average = 0.326856
	minimum = 0.320958 (at node 1)
	maximum = 0.332375 (at node 8)
Accepted packet rate average = 0.326343
	minimum = 0.320042 (at node 3)
	maximum = 0.332167 (at node 0)
Injected flit rate average = 0.326856
	minimum = 0.320958 (at node 1)
	maximum = 0.332375 (at node 8)
Accepted flit rate average= 0.326343
	minimum = 0.320042 (at node 3)
	maximum = 0.332167 (at node 0)
Injected packet length average = 1
Accepted packet length average = 1
Total in-flight flits = 120 (120 measured)
====== Peak Queue Occupancy Statistics (Absolute Max) ======
  Overall Max VC Occupancy = 1
  Overall Max Buffer Occupancy = 17
latency change    = 0.103207
throughput change = 0.0752244
Class 0:
Packet latency average = 26.3432
	minimum = 11
	maximum = 1627
	95th percentile = 78.5
	99th percentile = 320.5
Network latency average = 23.1654
	minimum = 11
	maximum = 1627
	95th percentile = 62.5
	99th percentile = 195.5
Slowest packet = 77415
Flit latency average = 23.1643
	minimum = 11
	maximum = 1627
	95th percentile = 62.5
	99th percentile = 195.5
Slowest flit = 77415
Fragmentation average = 0
	minimum = 0
	maximum = 0
Injected packet rate average = 0.35023
	minimum = 0.339704 (at node 1)
	maximum = 0.356519 (at node 8)
Accepted packet rate average = 0.348654
	minimum = 0.337185 (at node 3)
	maximum = 0.356296 (at node 0)
Injected flit rate average = 0.35023
	minimum = 0.339704 (at node 1)
	maximum = 0.356519 (at node 8)
Accepted flit rate average= 0.348654
	minimum = 0.337185 (at node 3)
	maximum = 0.356296 (at node 0)
Injected packet length average = 1
Accepted packet length average = 1
Total in-flight flits = 392 (392 measured)
====== Peak Queue Occupancy Statistics (Absolute Max) ======
  Overall Max VC Occupancy = 1
  Overall Max Buffer Occupancy = 48
latency change    = 0.434324
throughput change = 0.0639938
Class 0:
Packet latency average = 56.5956
	minimum = 11
	maximum = 2786
	95th percentile = 284.5
	99th percentile = 931.5
Network latency average = 31.7599
	minimum = 11
	maximum = 2712
	95th percentile = 95.5
	99th percentile = 365.5
Slowest packet = 90228
Flit latency average = 31.7582
	minimum = 11
	maximum = 2712
	95th percentile = 95.5
	99th percentile = 365.5
Slowest flit = 90519
Fragmentation average = 0
	minimum = 0
	maximum = 0
Injected packet rate average = 0.370993
	minimum = 0.356967 (at node 6)
	maximum = 0.3824 (at node 8)
Accepted packet rate average = 0.369463
	minimum = 0.3528 (at node 2)
	maximum = 0.3821 (at node 0)
Injected flit rate average = 0.370993
	minimum = 0.356967 (at node 6)
	maximum = 0.3824 (at node 8)
Accepted flit rate average= 0.369463
	minimum = 0.3528 (at node 2)
	maximum = 0.3821 (at node 0)
Injected packet length average = 1
Accepted packet length average = 1
Total in-flight flits = 424 (424 measured)
====== Peak Queue Occupancy Statistics (Absolute Max) ======
  Overall Max VC Occupancy = 1
  Overall Max Buffer Occupancy = 48
latency change    = 0.534536
throughput change = 0.0563213
Class 0:
Packet latency average = 105.144
	minimum = 11
	maximum = 3025
	95th percentile = 854.5
	99th percentile = 999.5
Network latency average = 38.5862
	minimum = 11
	maximum = 2712
	95th percentile = 117.5
	99th percentile = 508.5
Slowest packet = 90228
Flit latency average = 38.5842
	minimum = 11
	maximum = 2712
	95th percentile = 117.5
	99th percentile = 508.5
Slowest flit = 90519
Fragmentation average = 0
	minimum = 0
	maximum = 0
Injected packet rate average = 0.387825
	minimum = 0.36397 (at node 1)
	maximum = 0.402576 (at node 4)
Accepted packet rate average = 0.386455
	minimum = 0.361788 (at node 3)
	maximum = 0.402455 (at node 8)
Injected flit rate average = 0.387825
	minimum = 0.36397 (at node 1)
	maximum = 0.402576 (at node 4)
Accepted flit rate average= 0.386455
	minimum = 0.361788 (at node 3)
	maximum = 0.402455 (at node 8)
Injected packet length average = 1
Accepted packet length average = 1
Total in-flight flits = 417 (417 measured)
====== Peak Queue Occupancy Statistics (Absolute Max) ======
  Overall Max VC Occupancy = 1
  Overall Max Buffer Occupancy = 48
latency change    = 0.461734
throughput change = 0.0439679
Class 0:
Packet latency average = 168.45
	minimum = 11
	maximum = 3620
	95th percentile = 999.5
	99th percentile = 999.5
Network latency average = 43.8218
	minimum = 11
	maximum = 2712
	95th percentile = 139.5
	99th percentile = 644.5
Slowest packet = 90228
Flit latency average = 43.8197
	minimum = 11
	maximum = 2712
	95th percentile = 139.5
	99th percentile = 644.5
Slowest flit = 90519
Fragmentation average = 0
	minimum = 0
	maximum = 0
Injected packet rate average = 0.402278
	minimum = 0.380556 (at node 1)
	maximum = 0.419778 (at node 4)
Accepted packet rate average = 0.401012
	minimum = 0.378861 (at node 3)
	maximum = 0.419639 (at node 8)
Injected flit rate average = 0.402278
	minimum = 0.380556 (at node 1)
	maximum = 0.419778 (at node 4)
Accepted flit rate average= 0.401012
	minimum = 0.378861 (at node 3)
	maximum = 0.419639 (at node 8)
Injected packet length average = 1
Accepted packet length average = 1
Total in-flight flits = 421 (421 measured)
====== Peak Queue Occupancy Statistics (Absolute Max) ======
  Overall Max VC Occupancy = 1
  Overall Max Buffer Occupancy = 48
latency change    = 0.375811
throughput change = 0.0363026
Class 0:
Packet latency average = 237.089
	minimum = 11
	maximum = 3968
	95th percentile = 999.5
	99th percentile = 999.5
Network latency average = 47.9262
	minimum = 11
	maximum = 2712
	95th percentile = 160.5
	99th percentile = 648.5
Slowest packet = 90228
Flit latency average = 47.924
	minimum = 11
	maximum = 2712
	95th percentile = 160.5
	99th percentile = 648.5
Slowest flit = 90519
Fragmentation average = 0
	minimum = 0
	maximum = 0
Injected packet rate average = 0.414222
	minimum = 0.389385 (at node 6)
	maximum = 0.435 (at node 4)
Accepted packet rate average = 0.413071
	minimum = 0.386231 (at node 2)
	maximum = 0.434872 (at node 8)
Injected flit rate average = 0.414222
	minimum = 0.389385 (at node 6)
	maximum = 0.435 (at node 4)
Accepted flit rate average= 0.413071
	minimum = 0.386231 (at node 2)
	maximum = 0.434872 (at node 8)
Injected packet length average = 1
Accepted packet length average = 1
Total in-flight flits = 416 (416 measured)
====== Peak Queue Occupancy Statistics (Absolute Max) ======
  Overall Max VC Occupancy = 1
  Overall Max Buffer Occupancy = 48
latency change    = 0.289508
throughput change = 0.0291932
Class 0:
Packet latency average = 311.946
	minimum = 11
	maximum = 4534
	95th percentile = 999.5
	99th percentile = 999.5
Network latency average = 51.3582
	minimum = 11
	maximum = 2712
	95th percentile = 176.5
	99th percentile = 701.5
Slowest packet = 90228
Flit latency average = 51.3561
	minimum = 11
	maximum = 2712
	95th percentile = 176.5
	99th percentile = 700.5
Slowest flit = 90519
Fragmentation average = 0
	minimum = 0
	maximum = 0
Injected packet rate average = 0.424124
	minimum = 0.393738 (at node 1)
	maximum = 0.44681 (at node 4)
Accepted packet rate average = 0.423026
	minimum = 0.392262 (at node 3)
	maximum = 0.446619 (at node 8)
Injected flit rate average = 0.424124
	minimum = 0.393738 (at node 1)
	maximum = 0.44681 (at node 4)
Accepted flit rate average= 0.423026
	minimum = 0.392262 (at node 3)
	maximum = 0.446619 (at node 8)
Injected packet length average = 1
Accepted packet length average = 1
Total in-flight flits = 426 (426 measured)
====== Peak Queue Occupancy Statistics (Absolute Max) ======
  Overall Max VC Occupancy = 1
  Overall Max Buffer Occupancy = 48
latency change    = 0.23997
throughput change = 0.0235334
Class 0:
Packet latency average = 392.554
	minimum = 11
	maximum = 5394
	95th percentile = 999.5
	99th percentile = 999.5
Network latency average = 54.1573
	minimum = 11
	maximum = 2712
	95th percentile = 187.5
	99th percentile = 767.5
Slowest packet = 90228
Flit latency average = 54.1552
	minimum = 11
	maximum = 2712
	95th percentile = 187.5
	99th percentile = 767.5
Slowest flit = 90519
Fragmentation average = 0
	minimum = 0
	maximum = 0
Injected packet rate average = 0.432886
	minimum = 0.405622 (at node 1)
	maximum = 0.4562 (at node 4)
Accepted packet rate average = 0.431872
	minimum = 0.404333 (at node 3)
	maximum = 0.456133 (at node 8)
Injected flit rate average = 0.432886
	minimum = 0.405622 (at node 1)
	maximum = 0.4562 (at node 4)
Accepted flit rate average= 0.431872
	minimum = 0.404333 (at node 3)
	maximum = 0.456133 (at node 8)
Injected packet length average = 1
Accepted packet length average = 1
Total in-flight flits = 422 (422 measured)
====== Peak Queue Occupancy Statistics (Absolute Max) ======
  Overall Max VC Occupancy = 1
  Overall Max Buffer Occupancy = 48
latency change    = 0.205342
throughput change = 0.020481
Class 0:
Packet latency average = 476.316
	minimum = 11
	maximum = 5581
	95th percentile = 999.5
	99th percentile = 999.5
Network latency average = 56.4976
	minimum = 11
	maximum = 2712
	95th percentile = 194.5
	99th percentile = 841.5
Slowest packet = 90228
Flit latency average = 56.4956
	minimum = 11
	maximum = 2712
	95th percentile = 194.5
	99th percentile = 841.5
Slowest flit = 90519
Fragmentation average = 0
	minimum = 0
	maximum = 0
Injected packet rate average = 0.440449
	minimum = 0.40975 (at node 6)
	maximum = 0.464396 (at node 4)
Accepted packet rate average = 0.439488
	minimum = 0.407187 (at node 2)
	maximum = 0.464229 (at node 8)
Injected flit rate average = 0.440449
	minimum = 0.40975 (at node 6)
	maximum = 0.464396 (at node 4)
Accepted flit rate average= 0.439488
	minimum = 0.407187 (at node 2)
	maximum = 0.464229 (at node 8)
Injected packet length average = 1
Accepted packet length average = 1
Total in-flight flits = 426 (426 measured)
====== Peak Queue Occupancy Statistics (Absolute Max) ======
  Overall Max VC Occupancy = 1
  Overall Max Buffer Occupancy = 48
latency change    = 0.175853
throughput change = 0.0173311
Class 0:
Packet latency average = 563.277
	minimum = 11
	maximum = 6218
	95th percentile = 999.5
	99th percentile = 999.5
Network latency average = 58.506
	minimum = 11
	maximum = 2727
	95th percentile = 203.5
	99th percentile = 999.5
Slowest packet = 90228
Flit latency average = 58.504
	minimum = 11
	maximum = 2727
	95th percentile = 203.5
	99th percentile = 999.5
Slowest flit = 185888
Fragmentation average = 0
	minimum = 0
	maximum = 0
Injected packet rate average = 0.447181
	minimum = 0.413275 (at node 1)
	maximum = 0.472333 (at node 4)
Accepted packet rate average = 0.446298
	minimum = 0.41198 (at node 3)
	maximum = 0.472314 (at node 8)
Injected flit rate average = 0.447181
	minimum = 0.413275 (at node 1)
	maximum = 0.472333 (at node 4)
Accepted flit rate average= 0.446298
	minimum = 0.41198 (at node 3)
	maximum = 0.472314 (at node 8)
Injected packet length average = 1
Accepted packet length average = 1
Total in-flight flits = 415 (415 measured)
====== Peak Queue Occupancy Statistics (Absolute Max) ======
  Overall Max VC Occupancy = 1
  Overall Max Buffer Occupancy = 48
latency change    = 0.154384
throughput change = 0.015259
Class 0:
Packet latency average = 653.152
	minimum = 11
	maximum = 7021
	95th percentile = 999.5
	99th percentile = 999.5
Network latency average = 60.3045
	minimum = 11
	maximum = 2727
	95th percentile = 209.5
	99th percentile = 999.5
Slowest packet = 90228
Flit latency average = 60.3025
	minimum = 11
	maximum = 2727
	95th percentile = 209.5
	99th percentile = 999.5
Slowest flit = 185888
Fragmentation average = 0
	minimum = 0
	maximum = 0
Injected packet rate average = 0.452852
	minimum = 0.422519 (at node 1)
	maximum = 0.478889 (at node 8)
Accepted packet rate average = 0.452014
	minimum = 0.421426 (at node 6)
	maximum = 0.478704 (at node 0)
Injected flit rate average = 0.452852
	minimum = 0.422519 (at node 1)
	maximum = 0.478889 (at node 8)
Accepted flit rate average= 0.452014
	minimum = 0.421426 (at node 6)
	maximum = 0.478704 (at node 0)
Injected packet length average = 1
Accepted packet length average = 1
Total in-flight flits = 418 (418 measured)
====== Peak Queue Occupancy Statistics (Absolute Max) ======
  Overall Max VC Occupancy = 1
  Overall Max Buffer Occupancy = 48
latency change    = 0.137602
throughput change = 0.0126455
Class 0:
Packet latency average = 743.702
	minimum = 11
	maximum = 7211
	95th percentile = 999.5
	99th percentile = 999.5
Network latency average = 61.7777
	minimum = 11
	maximum = 2727
	95th percentile = 215.5
	99th percentile = 999.5
Slowest packet = 90228
Flit latency average = 61.7758
	minimum = 11
	maximum = 2727
	95th percentile = 215.5
	99th percentile = 999.5
Slowest flit = 185888
Fragmentation average = 0
	minimum = 0
	maximum = 0
Injected packet rate average = 0.458226
	minimum = 0.423684 (at node 6)
	maximum = 0.484947 (at node 4)
Accepted packet rate average = 0.457423
	minimum = 0.421526 (at node 2)
	maximum = 0.484842 (at node 8)
Injected flit rate average = 0.458226
	minimum = 0.423684 (at node 6)
	maximum = 0.484947 (at node 4)
Accepted flit rate average= 0.457423
	minimum = 0.421526 (at node 2)
	maximum = 0.484842 (at node 8)
Injected packet length average = 1
Accepted packet length average = 1
Total in-flight flits = 424 (424 measured)
====== Peak Queue Occupancy Statistics (Absolute Max) ======
  Overall Max VC Occupancy = 1
  Overall Max Buffer Occupancy = 48
latency change    = 0.121755
throughput change = 0.0118241
Class 0:
Packet latency average = 836.004
	minimum = 11
	maximum = 7905
	95th percentile = 999.5
	99th percentile = 999.5
Network latency average = 63.1034
	minimum = 11
	maximum = 2727
	95th percentile = 220.5
	99th percentile = 999.5
Slowest packet = 90228
Flit latency average = 63.1016
	minimum = 11
	maximum = 2727
	95th percentile = 220.5
	99th percentile = 999.5
Slowest flit = 185888
Fragmentation average = 0
	minimum = 0
	maximum = 0
Injected packet rate average = 0.463304
	minimum = 0.4267 (at node 1)
	maximum = 0.491267 (at node 4)
Accepted packet rate average = 0.462548
	minimum = 0.425583 (at node 3)
	maximum = 0.4912 (at node 8)
Injected flit rate average = 0.463304
	minimum = 0.4267 (at node 1)
	maximum = 0.491267 (at node 4)
Accepted flit rate average= 0.462548
	minimum = 0.425583 (at node 3)
	maximum = 0.4912 (at node 8)
Injected packet length average = 1
Accepted packet length average = 1
Total in-flight flits = 419 (419 measured)
====== Peak Queue Occupancy Statistics (Absolute Max) ======
  Overall Max VC Occupancy = 1
  Overall Max Buffer Occupancy = 48
latency change    = 0.110409
throughput change = 0.0110802
Draining all recorded packets ...
Class 0:
Remaining flits: 247558 248204 248528 248929 249279 249515 249670 249893 249901 250003 [...] (427 flits)
Measured flits: 247558 248204 248528 248929 249279 249515 249670 249893 249901 250003 [...] (387 flits)
Class 0:
Remaining flits: 253141 253264 253610 253832 254244 254318 254777 254783 254913 255151 [...] (423 flits)
Measured flits: 253141 253264 253610 253832 254244 254318 254777 254783 254913 255151 [...] (386 flits)
Class 0:
Remaining flits: 258477 258695 258922 259157 259407 259632 259881 260130 260373 260602 [...] (424 flits)
Measured flits: 258477 258695 258922 259157 259407 259632 259881 260130 260373 260602 [...] (387 flits)
Class 0:
Remaining flits: 263464 263688 263935 264170 264399 264639 264858 265101 265350 265582 [...] (428 flits)
Measured flits: 263464 263688 263935 264170 264399 264639 264858 265101 265350 265582 [...] (385 flits)
Class 0:
Remaining flits: 268573 268820 269050 269235 269293 269473 269956 270101 270350 270404 [...] (425 flits)
Measured flits: 268573 268820 269050 269235 269293 269473 269956 270101 270350 270404 [...] (384 flits)
Class 0:
Remaining flits: 272907 272916 272932 273897 274117 274591 274596 274609 274969 275295 [...] (426 flits)
Measured flits: 272907 272916 272932 273897 274117 274591 274596 274609 274969 275295 [...] (385 flits)
Class 0:
Remaining flits: 277199 277895 278122 278376 278700 278842 279328 279333 279427 279573 [...] (421 flits)
Measured flits: 277199 277895 278122 278376 278700 278842 279328 279333 279427 279573 [...] (264 flits)
Class 0:
Remaining flits: 283595 283846 284092 284335 284585 284824 285065 285299 285550 285778 [...] (416 flits)
Measured flits: 283595 283846 284092 284335 284585 284824 285065 285299 285550 285778 [...] (25 flits)
Draining remaining packets ...
Time taken is 74914 cycles
====== Overall Traffic Statistics ======
====== Traffic class 0 ======
Packet latency average = 1143.25 (1 samples)
	minimum = 11 (1 samples)
	maximum = 9356 (1 samples)
Network latency average = 70.6474 (1 samples)
	minimum = 11 (1 samples)
	maximum = 2727 (1 samples)
Flit latency average = 66.6555 (1 samples)
	minimum = 11 (1 samples)
	maximum = 2727 (1 samples)
Fragmentation average = 0 (1 samples)
	minimum = 0 (1 samples)
	maximum = 0 (1 samples)
Injected packet rate average = 0.463304 (1 samples)
	minimum = 0.4267 (1 samples)
	maximum = 0.491267 (1 samples)
Accepted packet rate average = 0.462548 (1 samples)
	minimum = 0.425583 (1 samples)
	maximum = 0.4912 (1 samples)
Injected flit rate average = 0.463304 (1 samples)
	minimum = 0.4267 (1 samples)
	maximum = 0.491267 (1 samples)
Accepted flit rate average = 0.462548 (1 samples)
	minimum = 0.425583 (1 samples)
	maximum = 0.4912 (1 samples)
Injected packet size average = 1 (1 samples)
Accepted packet size average = 1 (1 samples)
Hops average = 3.66718 (1 samples)
Total run time 27.744

