BEGIN Configuration File: D:\noc_huawei\noc\booksim2-noc_speedup_study\booksim2-noc_speedup_study\tests\data\results\fixed_perm_growth_models_perm_4_3_6_1_8_7_2_5_0_peak_0p6_current_defaults\tmp_configs\linear_scale_racke_tree_s2202.config
num_vcs     = 48;
vc_buf_size = 16;
wait_for_tail_credit = 1;

vc_allocator = islip;
sw_allocator = islip;
alloc_iters  = 16;

credit_delay   = 2;
routing_delay  = 0;
vc_alloc_delay = 1;
sw_alloc_delay = 1;
st_final_delay = 1;

input_speedup     = 1;
output_speedup    = 1;
internal_speedup  = 2.0;

sim_type = latency;
latency_thres  = 100000.0;
sim_count      = 1;
queue_sample_period_cycles = 0;

topology = mesh;
k  = 3;
n  = 2;

hybrid_transition_mode = linear_prob;
hybrid_xy_low_threshold = 0.35;
hybrid_racke_high_threshold = 0.65;
hybrid_buffer_soft_threshold = 0.50;
hybrid_buffer_hard_threshold = 0.85;
hybrid_buffer_release_threshold = 0.35;
hybrid_rate_soft_threshold = 0.55;
hybrid_rate_hard_threshold = 0.90;
hybrid_rate_weight = 0.25;
hybrid_congestion_alpha = 0.25;
hybrid_racke_increase_step = 0.25;
hybrid_racke_decrease_step = 0.10;
hybrid_epoch_cycles = 200;
hybrid_hold_cycles = 600;
hybrid_enable_midflight_override = 1;
hybrid_feedback_delay_per_hop = 1;
hybrid_flow_increase_step = 0.20;
hybrid_flow_decrease_step = 0.08;
hybrid_flow_hard_threshold = 0.95;

packet_size = 1;


ordered_injection_coefficients = {0.1666666667,0.3333333333,0.5};
ordered_injection_phase_cycles = {1000,1000,1000};
ordered_injection_source_order = {4,0,7,2,8,1,5,3,6};
ordered_injection_flow_peak_rate = 0.60;
warmup_periods = 2;
custom_perm_array = {4,3,6,1,8,7,2,5,0};
injection_process = scheduled;
injection_rate = 0.6;
scheduled_default_phase_cycles = 3000;
perm_seed = 2202;
hybrid_flow_hotspot_alpha = 0.85;
hybrid_stats_window_cycles = 3000;
hybrid_flow_hotspot_threshold = 1.1;
sample_period = 3000;
scheduled_injection_rates = {0.05,0.1,0.15,0.2,0.25,0.3,0.35,0.4,0.45,0.5,0.55,0.6,0.6,0.6};
traffic = custom_perm;
routing_function = racke_tree;
scheduled_phase_cycles = {3000,3000,3000,3000,3000,3000,3000,3000,3000,3000,3000,3000,3000,3000};
seed = 2202;
max_samples = 22;

END Configuration File: D:\noc_huawei\noc\booksim2-noc_speedup_study\booksim2-noc_speedup_study\tests\data\results\fixed_perm_growth_models_perm_4_3_6_1_8_7_2_5_0_peak_0p6_current_defaults\tmp_configs\linear_scale_racke_tree_s2202.config
Class 0:
Packet latency average = 14.4087
	minimum = 11
	maximum = 19
	95th percentile = 17.5
	99th percentile = 18.5
Network latency average = 14.4087
	minimum = 11
	maximum = 19
	95th percentile = 17.5
	99th percentile = 18.5
Slowest packet = 77
Flit latency average = 14.4087
	minimum = 11
	maximum = 19
	95th percentile = 17.5
	99th percentile = 18.5
Slowest flit = 77
Fragmentation average = 0
	minimum = 0
	maximum = 0
Injected packet rate average = 0.0506296
	minimum = 0.046 (at node 2)
	maximum = 0.0553333 (at node 8)
Accepted packet rate average = 0.0504815
	minimum = 0.0456667 (at node 6)
	maximum = 0.0553333 (at node 0)
Injected flit rate average = 0.0506296
	minimum = 0.046 (at node 2)
	maximum = 0.0553333 (at node 8)
Accepted flit rate average= 0.0504815
	minimum = 0.0456667 (at node 6)
	maximum = 0.0553333 (at node 0)
Injected packet length average = 1
Accepted packet length average = 1
Total in-flight flits = 4 (0 measured)
====== Peak Queue Occupancy Statistics (Absolute Max) ======
  Overall Max VC Occupancy = 1
  Overall Max Buffer Occupancy = 2
latency change    = 1
throughput change = 1
Class 0:
Packet latency average = 14.4162
	minimum = 11
	maximum = 19
	95th percentile = 18.5
	99th percentile = 18.5
Network latency average = 14.4162
	minimum = 11
	maximum = 19
	95th percentile = 18.5
	99th percentile = 18.5
Slowest packet = 77
Flit latency average = 14.4162
	minimum = 11
	maximum = 19
	95th percentile = 18.5
	99th percentile = 18.5
Slowest flit = 77
Fragmentation average = 0
	minimum = 0
	maximum = 0
Injected packet rate average = 0.0744815
	minimum = 0.069 (at node 6)
	maximum = 0.0775 (at node 5)
Accepted packet rate average = 0.0742593
	minimum = 0.069 (at node 2)
	maximum = 0.0768333 (at node 7)
Injected flit rate average = 0.0744815
	minimum = 0.069 (at node 6)
	maximum = 0.0775 (at node 5)
Accepted flit rate average= 0.0742593
	minimum = 0.069 (at node 2)
	maximum = 0.0768333 (at node 7)
Injected packet length average = 1
Accepted packet length average = 1
Total in-flight flits = 12 (0 measured)
====== Peak Queue Occupancy Statistics (Absolute Max) ======
  Overall Max VC Occupancy = 1
  Overall Max Buffer Occupancy = 2
latency change    = 0.000523862
throughput change = 0.3202
Warmed up ...Time used is 6000 cycles
Class 0:
Packet latency average = 14.5232
	minimum = 11
	maximum = 20
	95th percentile = 18.5
	99th percentile = 19.5
Network latency average = 14.5232
	minimum = 11
	maximum = 20
	95th percentile = 18.5
	99th percentile = 19.5
Slowest packet = 4629
Flit latency average = 14.5204
	minimum = 11
	maximum = 20
	95th percentile = 18.5
	99th percentile = 19.5
Slowest flit = 4629
Fragmentation average = 0
	minimum = 0
	maximum = 0
Injected packet rate average = 0.149889
	minimum = 0.137667 (at node 2)
	maximum = 0.160333 (at node 5)
Accepted packet rate average = 0.149519
	minimum = 0.137333 (at node 6)
	maximum = 0.160333 (at node 7)
Injected flit rate average = 0.149889
	minimum = 0.137667 (at node 2)
	maximum = 0.160333 (at node 5)
Accepted flit rate average= 0.149519
	minimum = 0.137333 (at node 6)
	maximum = 0.160333 (at node 7)
Injected packet length average = 1
Accepted packet length average = 1
Total in-flight flits = 22 (22 measured)
====== Peak Queue Occupancy Statistics (Absolute Max) ======
  Overall Max VC Occupancy = 1
  Overall Max Buffer Occupancy = 2
latency change    = 0.00736891
throughput change = 0.503344
Class 0:
Packet latency average = 14.6033
	minimum = 11
	maximum = 21
	95th percentile = 18.5
	99th percentile = 19.5
Network latency average = 14.6033
	minimum = 11
	maximum = 21
	95th percentile = 18.5
	99th percentile = 19.5
Slowest packet = 9972
Flit latency average = 14.602
	minimum = 11
	maximum = 21
	95th percentile = 18.5
	99th percentile = 19.5
Slowest flit = 9972
Fragmentation average = 0
	minimum = 0
	maximum = 0
Injected packet rate average = 0.176463
	minimum = 0.164333 (at node 2)
	maximum = 0.183667 (at node 6)
Accepted packet rate average = 0.17613
	minimum = 0.1635 (at node 6)
	maximum = 0.183333 (at node 1)
Injected flit rate average = 0.176463
	minimum = 0.164333 (at node 2)
	maximum = 0.183667 (at node 6)
Accepted flit rate average= 0.17613
	minimum = 0.1635 (at node 6)
	maximum = 0.183333 (at node 1)
Injected packet length average = 1
Accepted packet length average = 1
Total in-flight flits = 30 (30 measured)
====== Peak Queue Occupancy Statistics (Absolute Max) ======
  Overall Max VC Occupancy = 1
  Overall Max Buffer Occupancy = 2
latency change    = 0.00548484
throughput change = 0.151088
Class 0:
Packet latency average = 14.6615
	minimum = 11
	maximum = 23
	95th percentile = 18.5
	99th percentile = 19.5
Network latency average = 14.6615
	minimum = 11
	maximum = 23
	95th percentile = 18.5
	99th percentile = 19.5
Slowest packet = 16176
Flit latency average = 14.6607
	minimum = 11
	maximum = 23
	95th percentile = 18.5
	99th percentile = 19.5
Slowest flit = 16176
Fragmentation average = 0
	minimum = 0
	maximum = 0
Injected packet rate average = 0.201111
	minimum = 0.191222 (at node 2)
	maximum = 0.206444 (at node 3)
Accepted packet rate average = 0.200914
	minimum = 0.190889 (at node 6)
	maximum = 0.206778 (at node 1)
Injected flit rate average = 0.201111
	minimum = 0.191222 (at node 2)
	maximum = 0.206444 (at node 3)
Accepted flit rate average= 0.200914
	minimum = 0.190889 (at node 6)
	maximum = 0.206778 (at node 1)
Injected packet length average = 1
Accepted packet length average = 1
Total in-flight flits = 28 (28 measured)
====== Peak Queue Occupancy Statistics (Absolute Max) ======
  Overall Max VC Occupancy = 1
  Overall Max Buffer Occupancy = 2
latency change    = 0.00397063
throughput change = 0.123356
Class 0:
Packet latency average = 14.7438
	minimum = 11
	maximum = 23
	95th percentile = 19.5
	99th percentile = 20.5
Network latency average = 14.7438
	minimum = 11
	maximum = 23
	95th percentile = 19.5
	99th percentile = 20.5
Slowest packet = 16176
Flit latency average = 14.7432
	minimum = 11
	maximum = 23
	95th percentile = 19.5
	99th percentile = 20.5
Slowest flit = 16176
Fragmentation average = 0
	minimum = 0
	maximum = 0
Injected packet rate average = 0.226306
	minimum = 0.21725 (at node 2)
	maximum = 0.23425 (at node 7)
Accepted packet rate average = 0.226102
	minimum = 0.217083 (at node 6)
	maximum = 0.234167 (at node 5)
Injected flit rate average = 0.226306
	minimum = 0.21725 (at node 2)
	maximum = 0.23425 (at node 7)
Accepted flit rate average= 0.226102
	minimum = 0.217083 (at node 6)
	maximum = 0.234167 (at node 5)
Injected packet length average = 1
Accepted packet length average = 1
Total in-flight flits = 34 (34 measured)
====== Peak Queue Occupancy Statistics (Absolute Max) ======
  Overall Max VC Occupancy = 1
  Overall Max Buffer Occupancy = 2
latency change    = 0.00557658
throughput change = 0.111402
Class 0:
Packet latency average = 14.8192
	minimum = 11
	maximum = 24
	95th percentile = 19.5
	99th percentile = 20.5
Network latency average = 14.8192
	minimum = 11
	maximum = 24
	95th percentile = 19.5
	99th percentile = 20.5
Slowest packet = 28973
Flit latency average = 14.8187
	minimum = 11
	maximum = 24
	95th percentile = 19.5
	99th percentile = 20.5
Slowest flit = 28973
Fragmentation average = 0
	minimum = 0
	maximum = 0
Injected packet rate average = 0.250859
	minimum = 0.243933 (at node 2)
	maximum = 0.2578 (at node 7)
Accepted packet rate average = 0.250563
	minimum = 0.243733 (at node 6)
	maximum = 0.257333 (at node 5)
Injected flit rate average = 0.250859
	minimum = 0.243933 (at node 2)
	maximum = 0.2578 (at node 7)
Accepted flit rate average= 0.250563
	minimum = 0.243733 (at node 6)
	maximum = 0.257333 (at node 5)
Injected packet length average = 1
Accepted packet length average = 1
Total in-flight flits = 52 (52 measured)
====== Peak Queue Occupancy Statistics (Absolute Max) ======
  Overall Max VC Occupancy = 1
  Overall Max Buffer Occupancy = 2
latency change    = 0.00508772
throughput change = 0.0976246
Class 0:
Packet latency average = 14.9045
	minimum = 11
	maximum = 24
	95th percentile = 19.5
	99th percentile = 20.5
Network latency average = 14.9045
	minimum = 11
	maximum = 24
	95th percentile = 19.5
	99th percentile = 20.5
Slowest packet = 28973
Flit latency average = 14.9041
	minimum = 11
	maximum = 24
	95th percentile = 19.5
	99th percentile = 20.5
Slowest flit = 28973
Fragmentation average = 0
	minimum = 0
	maximum = 0
Injected packet rate average = 0.275938
	minimum = 0.269 (at node 2)
	maximum = 0.282056 (at node 7)
Accepted packet rate average = 0.275611
	minimum = 0.2685 (at node 6)
	maximum = 0.281833 (at node 5)
Injected flit rate average = 0.275938
	minimum = 0.269 (at node 2)
	maximum = 0.282056 (at node 7)
Accepted flit rate average= 0.275611
	minimum = 0.2685 (at node 6)
	maximum = 0.281833 (at node 5)
Injected packet length average = 1
Accepted packet length average = 1
Total in-flight flits = 65 (65 measured)
====== Peak Queue Occupancy Statistics (Absolute Max) ======
  Overall Max VC Occupancy = 1
  Overall Max Buffer Occupancy = 2
latency change    = 0.0057242
throughput change = 0.0908822
Class 0:
Packet latency average = 15.0044
	minimum = 11
	maximum = 24
	95th percentile = 19.5
	99th percentile = 21.5
Network latency average = 15.0044
	minimum = 11
	maximum = 24
	95th percentile = 19.5
	99th percentile = 21.5
Slowest packet = 28973
Flit latency average = 15.0041
	minimum = 11
	maximum = 24
	95th percentile = 19.5
	99th percentile = 21.5
Slowest flit = 28973
Fragmentation average = 0
	minimum = 0
	maximum = 0
Injected packet rate average = 0.301317
	minimum = 0.293857 (at node 2)
	maximum = 0.306905 (at node 7)
Accepted packet rate average = 0.301021
	minimum = 0.293476 (at node 6)
	maximum = 0.306524 (at node 5)
Injected flit rate average = 0.301317
	minimum = 0.293857 (at node 2)
	maximum = 0.306905 (at node 7)
Accepted flit rate average= 0.301021
	minimum = 0.293476 (at node 6)
	maximum = 0.306524 (at node 5)
Injected packet length average = 1
Accepted packet length average = 1
Total in-flight flits = 68 (68 measured)
====== Peak Queue Occupancy Statistics (Absolute Max) ======
  Overall Max VC Occupancy = 1
  Overall Max Buffer Occupancy = 3
latency change    = 0.00666179
throughput change = 0.0844128
Class 0:
Packet latency average = 15.101
	minimum = 11
	maximum = 24
	95th percentile = 19.5
	99th percentile = 21.5
Network latency average = 15.101
	minimum = 11
	maximum = 24
	95th percentile = 19.5
	99th percentile = 21.5
Slowest packet = 28973
Flit latency average = 15.1008
	minimum = 11
	maximum = 24
	95th percentile = 19.5
	99th percentile = 21.5
Slowest flit = 28973
Fragmentation average = 0
	minimum = 0
	maximum = 0
Injected packet rate average = 0.325671
	minimum = 0.318917 (at node 2)
	maximum = 0.330875 (at node 7)
Accepted packet rate average = 0.325361
	minimum = 0.318583 (at node 6)
	maximum = 0.3305 (at node 5)
Injected flit rate average = 0.325671
	minimum = 0.318917 (at node 2)
	maximum = 0.330875 (at node 7)
Accepted flit rate average= 0.325361
	minimum = 0.318583 (at node 6)
	maximum = 0.3305 (at node 5)
Injected packet length average = 1
Accepted packet length average = 1
Total in-flight flits = 79 (79 measured)
====== Peak Queue Occupancy Statistics (Absolute Max) ======
  Overall Max VC Occupancy = 1
  Overall Max Buffer Occupancy = 3
latency change    = 0.00639786
throughput change = 0.074809
Class 0:
Packet latency average = 15.2095
	minimum = 11
	maximum = 24
	95th percentile = 20.5
	99th percentile = 21.5
Network latency average = 15.2095
	minimum = 11
	maximum = 24
	95th percentile = 20.5
	99th percentile = 21.5
Slowest packet = 28973
Flit latency average = 15.2092
	minimum = 11
	maximum = 24
	95th percentile = 20.5
	99th percentile = 21.5
Slowest flit = 28973
Fragmentation average = 0
	minimum = 0
	maximum = 0
Injected packet rate average = 0.350716
	minimum = 0.342593 (at node 2)
	maximum = 0.354963 (at node 7)
Accepted packet rate average = 0.350407
	minimum = 0.342222 (at node 6)
	maximum = 0.354704 (at node 5)
Injected flit rate average = 0.350716
	minimum = 0.342593 (at node 2)
	maximum = 0.354963 (at node 7)
Accepted flit rate average= 0.350407
	minimum = 0.342222 (at node 6)
	maximum = 0.354704 (at node 5)
Injected packet length average = 1
Accepted packet length average = 1
Total in-flight flits = 87 (87 measured)
====== Peak Queue Occupancy Statistics (Absolute Max) ======
  Overall Max VC Occupancy = 1
  Overall Max Buffer Occupancy = 3
latency change    = 0.00712755
throughput change = 0.0714776
Class 0:
Packet latency average = 15.3204
	minimum = 11
	maximum = 29
	95th percentile = 20.5
	99th percentile = 21.5
Network latency average = 15.3204
	minimum = 11
	maximum = 29
	95th percentile = 20.5
	99th percentile = 21.5
Slowest packet = 100458
Flit latency average = 15.3202
	minimum = 11
	maximum = 29
	95th percentile = 20.5
	99th percentile = 21.5
Slowest flit = 100458
Fragmentation average = 0
	minimum = 0
	maximum = 0
Injected packet rate average = 0.37553
	minimum = 0.368333 (at node 2)
	maximum = 0.379767 (at node 3)
Accepted packet rate average = 0.375319
	minimum = 0.367933 (at node 6)
	maximum = 0.379567 (at node 1)
Injected flit rate average = 0.37553
	minimum = 0.368333 (at node 2)
	maximum = 0.379767 (at node 3)
Accepted flit rate average= 0.375319
	minimum = 0.367933 (at node 6)
	maximum = 0.379567 (at node 1)
Injected packet length average = 1
Accepted packet length average = 1
Total in-flight flits = 69 (69 measured)
====== Peak Queue Occupancy Statistics (Absolute Max) ======
  Overall Max VC Occupancy = 1
  Overall Max Buffer Occupancy = 3
latency change    = 0.00724244
throughput change = 0.0663733
Class 0:
Packet latency average = 15.4077
	minimum = 11
	maximum = 29
	95th percentile = 20.5
	99th percentile = 22.5
Network latency average = 15.4077
	minimum = 11
	maximum = 29
	95th percentile = 20.5
	99th percentile = 22.5
Slowest packet = 100458
Flit latency average = 15.4075
	minimum = 11
	maximum = 29
	95th percentile = 20.5
	99th percentile = 22.5
Slowest flit = 100458
Fragmentation average = 0
	minimum = 0
	maximum = 0
Injected packet rate average = 0.39598
	minimum = 0.388545 (at node 2)
	maximum = 0.400606 (at node 7)
Accepted packet rate average = 0.395785
	minimum = 0.388273 (at node 6)
	maximum = 0.400333 (at node 5)
Injected flit rate average = 0.39598
	minimum = 0.388545 (at node 2)
	maximum = 0.400606 (at node 7)
Accepted flit rate average= 0.395785
	minimum = 0.388273 (at node 6)
	maximum = 0.400333 (at node 5)
Injected packet length average = 1
Accepted packet length average = 1
Total in-flight flits = 70 (70 measured)
====== Peak Queue Occupancy Statistics (Absolute Max) ======
  Overall Max VC Occupancy = 1
  Overall Max Buffer Occupancy = 3
latency change    = 0.0056669
throughput change = 0.0517099
Class 0:
Packet latency average = 15.4679
	minimum = 11
	maximum = 29
	95th percentile = 20.5
	99th percentile = 22.5
Network latency average = 15.4679
	minimum = 11
	maximum = 29
	95th percentile = 20.5
	99th percentile = 22.5
Slowest packet = 100458
Flit latency average = 15.4677
	minimum = 11
	maximum = 29
	95th percentile = 20.5
	99th percentile = 22.5
Slowest flit = 100458
Fragmentation average = 0
	minimum = 0
	maximum = 0
Injected packet rate average = 0.412969
	minimum = 0.406472 (at node 2)
	maximum = 0.418028 (at node 7)
Accepted packet rate average = 0.412704
	minimum = 0.406056 (at node 6)
	maximum = 0.41775 (at node 5)
Injected flit rate average = 0.412969
	minimum = 0.406472 (at node 2)
	maximum = 0.418028 (at node 7)
Accepted flit rate average= 0.412704
	minimum = 0.406056 (at node 6)
	maximum = 0.41775 (at node 5)
Injected packet length average = 1
Accepted packet length average = 1
Total in-flight flits = 98 (98 measured)
====== Peak Queue Occupancy Statistics (Absolute Max) ======
  Overall Max VC Occupancy = 1
  Overall Max Buffer Occupancy = 3
latency change    = 0.00388758
throughput change = 0.040996
Class 0:
Packet latency average = 15.5136
	minimum = 11
	maximum = 29
	95th percentile = 20.5
	99th percentile = 22.5
Network latency average = 15.5136
	minimum = 11
	maximum = 29
	95th percentile = 20.5
	99th percentile = 22.5
Slowest packet = 100458
Flit latency average = 15.5135
	minimum = 11
	maximum = 29
	95th percentile = 20.5
	99th percentile = 22.5
Slowest flit = 100458
Fragmentation average = 0
	minimum = 0
	maximum = 0
Injected packet rate average = 0.42708
	minimum = 0.420974 (at node 2)
	maximum = 0.432333 (at node 7)
Accepted packet rate average = 0.426877
	minimum = 0.420692 (at node 6)
	maximum = 0.432128 (at node 5)
Injected flit rate average = 0.42708
	minimum = 0.420974 (at node 2)
	maximum = 0.432333 (at node 7)
Accepted flit rate average= 0.426877
	minimum = 0.420692 (at node 6)
	maximum = 0.432128 (at node 5)
Injected packet length average = 1
Accepted packet length average = 1
Total in-flight flits = 83 (83 measured)
====== Peak Queue Occupancy Statistics (Absolute Max) ======
  Overall Max VC Occupancy = 1
  Overall Max Buffer Occupancy = 3
latency change    = 0.00295193
throughput change = 0.0332034
Class 0:
Packet latency average = 15.555
	minimum = 11
	maximum = 29
	95th percentile = 20.5
	99th percentile = 22.5
Network latency average = 15.555
	minimum = 11
	maximum = 29
	95th percentile = 20.5
	99th percentile = 22.5
Slowest packet = 100458
Flit latency average = 15.5549
	minimum = 11
	maximum = 29
	95th percentile = 20.5
	99th percentile = 22.5
Slowest flit = 100458
Fragmentation average = 0
	minimum = 0
	maximum = 0
Injected packet rate average = 0.43964
	minimum = 0.43469 (at node 2)
	maximum = 0.444048 (at node 7)
Accepted packet rate average = 0.43945
	minimum = 0.434405 (at node 6)
	maximum = 0.443833 (at node 5)
Injected flit rate average = 0.43964
	minimum = 0.43469 (at node 2)
	maximum = 0.444048 (at node 7)
Accepted flit rate average= 0.43945
	minimum = 0.434405 (at node 6)
	maximum = 0.443833 (at node 5)
Injected packet length average = 1
Accepted packet length average = 1
Total in-flight flits = 84 (84 measured)
====== Peak Queue Occupancy Statistics (Absolute Max) ======
  Overall Max VC Occupancy = 1
  Overall Max Buffer Occupancy = 3
latency change    = 0.00266046
throughput change = 0.0286091
Draining all recorded packets ...
Draining remaining packets ...
Time taken is 48044 cycles
====== Overall Traffic Statistics ======
====== Traffic class 0 ======
Packet latency average = 15.5557 (1 samples)
	minimum = 11 (1 samples)
	maximum = 29 (1 samples)
Network latency average = 15.5557 (1 samples)
	minimum = 11 (1 samples)
	maximum = 29 (1 samples)
Flit latency average = 15.556 (1 samples)
	minimum = 11 (1 samples)
	maximum = 29 (1 samples)
Fragmentation average = 0 (1 samples)
	minimum = 0 (1 samples)
	maximum = 0 (1 samples)
Injected packet rate average = 0.43964 (1 samples)
	minimum = 0.43469 (1 samples)
	maximum = 0.444048 (1 samples)
Accepted packet rate average = 0.43945 (1 samples)
	minimum = 0.434405 (1 samples)
	maximum = 0.443833 (1 samples)
Injected flit rate average = 0.43964 (1 samples)
	minimum = 0.43469 (1 samples)
	maximum = 0.444048 (1 samples)
Accepted flit rate average = 0.43945 (1 samples)
	minimum = 0.434405 (1 samples)
	maximum = 0.443833 (1 samples)
Injected packet size average = 1 (1 samples)
Accepted packet size average = 1 (1 samples)
Hops average = 4.10999 (1 samples)
Total run time 6.44938

