BEGIN Configuration File: D:\noc_huawei\noc\booksim2-noc_speedup_study\booksim2-noc_speedup_study\tests\data\results\fixed_perm_growth_models_perm_4_3_6_1_8_7_2_5_0_peak_0p6_current_defaults\tmp_configs\linear_scale_hybrid_xy_racke_s2202.config
num_vcs     = 48;
vc_buf_size = 16;
wait_for_tail_credit = 1;

vc_allocator = islip;
sw_allocator = islip;
alloc_iters  = 16;

credit_delay   = 2;
routing_delay  = 0;
vc_alloc_delay = 1;
sw_alloc_delay = 1;
st_final_delay = 1;

input_speedup     = 1;
output_speedup    = 1;
internal_speedup  = 2.0;

sim_type = latency;
latency_thres  = 100000.0;
sim_count      = 1;
queue_sample_period_cycles = 0;

topology = mesh;
k  = 3;
n  = 2;

hybrid_transition_mode = linear_prob;
hybrid_xy_low_threshold = 0.35;
hybrid_racke_high_threshold = 0.65;
hybrid_buffer_soft_threshold = 0.50;
hybrid_buffer_hard_threshold = 0.85;
hybrid_buffer_release_threshold = 0.35;
hybrid_rate_soft_threshold = 0.55;
hybrid_rate_hard_threshold = 0.90;
hybrid_rate_weight = 0.25;
hybrid_congestion_alpha = 0.25;
hybrid_racke_increase_step = 0.25;
hybrid_racke_decrease_step = 0.10;
hybrid_epoch_cycles = 200;
hybrid_hold_cycles = 600;
hybrid_enable_midflight_override = 1;
hybrid_feedback_delay_per_hop = 1;
hybrid_flow_increase_step = 0.20;
hybrid_flow_decrease_step = 0.08;
hybrid_flow_hard_threshold = 0.95;

packet_size = 1;


ordered_injection_coefficients = {0.1666666667,0.3333333333,0.5};
ordered_injection_phase_cycles = {1000,1000,1000};
ordered_injection_source_order = {4,0,7,2,8,1,5,3,6};
ordered_injection_flow_peak_rate = 0.60;
warmup_periods = 2;
custom_perm_array = {4,3,6,1,8,7,2,5,0};
injection_process = scheduled;
injection_rate = 0.6;
scheduled_default_phase_cycles = 3000;
perm_seed = 2202;
hybrid_flow_hotspot_alpha = 0.85;
hybrid_stats_window_cycles = 3000;
hybrid_flow_hotspot_threshold = 1.1;
sample_period = 3000;
scheduled_injection_rates = {0.05,0.1,0.15,0.2,0.25,0.3,0.35,0.4,0.45,0.5,0.55,0.6,0.6,0.6};
traffic = custom_perm;
routing_function = hybrid_xy_racke;
scheduled_phase_cycles = {3000,3000,3000,3000,3000,3000,3000,3000,3000,3000,3000,3000,3000,3000};
seed = 2202;
max_samples = 22;

END Configuration File: D:\noc_huawei\noc\booksim2-noc_speedup_study\booksim2-noc_speedup_study\tests\data\results\fixed_perm_growth_models_perm_4_3_6_1_8_7_2_5_0_peak_0p6_current_defaults\tmp_configs\linear_scale_hybrid_xy_racke_s2202.config
Class 0:
Packet latency average = 13.0007
	minimum = 11
	maximum = 18
	95th percentile = 17.5
	99th percentile = 17.5
Network latency average = 13.0007
	minimum = 11
	maximum = 18
	95th percentile = 17.5
	99th percentile = 17.5
Slowest packet = 115
Flit latency average = 13.0007
	minimum = 11
	maximum = 18
	95th percentile = 17.5
	99th percentile = 17.5
Slowest flit = 115
Fragmentation average = 0
	minimum = 0
	maximum = 0
Injected packet rate average = 0.0506296
	minimum = 0.046 (at node 2)
	maximum = 0.0553333 (at node 8)
Accepted packet rate average = 0.0504815
	minimum = 0.0456667 (at node 6)
	maximum = 0.0553333 (at node 0)
Injected flit rate average = 0.0506296
	minimum = 0.046 (at node 2)
	maximum = 0.0553333 (at node 8)
Accepted flit rate average= 0.0504815
	minimum = 0.0456667 (at node 6)
	maximum = 0.0553333 (at node 0)
Injected packet length average = 1
Accepted packet length average = 1
Total in-flight flits = 4 (0 measured)
====== Peak Queue Occupancy Statistics (Absolute Max) ======
  Overall Max VC Occupancy = 1
  Overall Max Buffer Occupancy = 2
latency change    = 1
throughput change = 1
Class 0:
Packet latency average = 12.9806
	minimum = 11
	maximum = 18
	95th percentile = 17.5
	99th percentile = 18.5
Network latency average = 12.9806
	minimum = 11
	maximum = 18
	95th percentile = 17.5
	99th percentile = 18.5
Slowest packet = 115
Flit latency average = 12.9806
	minimum = 11
	maximum = 18
	95th percentile = 17.5
	99th percentile = 18.5
Slowest flit = 115
Fragmentation average = 0
	minimum = 0
	maximum = 0
Injected packet rate average = 0.0744815
	minimum = 0.069 (at node 6)
	maximum = 0.0775 (at node 5)
Accepted packet rate average = 0.0742778
	minimum = 0.069 (at node 2)
	maximum = 0.0768333 (at node 7)
Injected flit rate average = 0.0744815
	minimum = 0.069 (at node 6)
	maximum = 0.0775 (at node 5)
Accepted flit rate average= 0.0742778
	minimum = 0.069 (at node 2)
	maximum = 0.0768333 (at node 7)
Injected packet length average = 1
Accepted packet length average = 1
Total in-flight flits = 11 (0 measured)
====== Peak Queue Occupancy Statistics (Absolute Max) ======
  Overall Max VC Occupancy = 1
  Overall Max Buffer Occupancy = 2
latency change    = 0.00155465
throughput change = 0.320369
Warmed up ...Time used is 6000 cycles
Class 0:
Packet latency average = 12.9973
	minimum = 11
	maximum = 19
	95th percentile = 17.5
	99th percentile = 18.5
Network latency average = 12.9973
	minimum = 11
	maximum = 19
	95th percentile = 17.5
	99th percentile = 18.5
Slowest packet = 6283
Flit latency average = 12.9948
	minimum = 11
	maximum = 19
	95th percentile = 17.5
	99th percentile = 18.5
Slowest flit = 6283
Fragmentation average = 0
	minimum = 0
	maximum = 0
Injected packet rate average = 0.149889
	minimum = 0.137667 (at node 2)
	maximum = 0.160333 (at node 5)
Accepted packet rate average = 0.149667
	minimum = 0.137333 (at node 6)
	maximum = 0.161 (at node 7)
Injected flit rate average = 0.149889
	minimum = 0.137667 (at node 2)
	maximum = 0.160333 (at node 5)
Accepted flit rate average= 0.149667
	minimum = 0.137333 (at node 6)
	maximum = 0.161 (at node 7)
Injected packet length average = 1
Accepted packet length average = 1
Total in-flight flits = 17 (17 measured)
====== Peak Queue Occupancy Statistics (Absolute Max) ======
  Overall Max VC Occupancy = 1
  Overall Max Buffer Occupancy = 2
latency change    = 0.00128619
throughput change = 0.503712
Class 0:
Packet latency average = 13.0382
	minimum = 11
	maximum = 19
	95th percentile = 17.5
	99th percentile = 18.5
Network latency average = 13.0382
	minimum = 11
	maximum = 19
	95th percentile = 17.5
	99th percentile = 18.5
Slowest packet = 6283
Flit latency average = 13.0371
	minimum = 11
	maximum = 19
	95th percentile = 17.5
	99th percentile = 18.5
Slowest flit = 6283
Fragmentation average = 0
	minimum = 0
	maximum = 0
Injected packet rate average = 0.176463
	minimum = 0.164333 (at node 2)
	maximum = 0.183667 (at node 6)
Accepted packet rate average = 0.176148
	minimum = 0.1635 (at node 6)
	maximum = 0.183167 (at node 1)
Injected flit rate average = 0.176463
	minimum = 0.164333 (at node 2)
	maximum = 0.183667 (at node 6)
Accepted flit rate average= 0.176148
	minimum = 0.1635 (at node 6)
	maximum = 0.183167 (at node 1)
Injected packet length average = 1
Accepted packet length average = 1
Total in-flight flits = 28 (28 measured)
====== Peak Queue Occupancy Statistics (Absolute Max) ======
  Overall Max VC Occupancy = 1
  Overall Max Buffer Occupancy = 2
latency change    = 0.0031397
throughput change = 0.150336
Class 0:
Packet latency average = 13.0494
	minimum = 11
	maximum = 21
	95th percentile = 17.5
	99th percentile = 18.5
Network latency average = 13.0494
	minimum = 11
	maximum = 21
	95th percentile = 17.5
	99th percentile = 18.5
Slowest packet = 17956
Flit latency average = 13.0487
	minimum = 11
	maximum = 21
	95th percentile = 17.5
	99th percentile = 18.5
Slowest flit = 17956
Fragmentation average = 0
	minimum = 0
	maximum = 0
Injected packet rate average = 0.201111
	minimum = 0.191222 (at node 2)
	maximum = 0.206444 (at node 3)
Accepted packet rate average = 0.200951
	minimum = 0.190889 (at node 6)
	maximum = 0.206667 (at node 1)
Injected flit rate average = 0.201111
	minimum = 0.191222 (at node 2)
	maximum = 0.206444 (at node 3)
Accepted flit rate average= 0.200951
	minimum = 0.190889 (at node 6)
	maximum = 0.206667 (at node 1)
Injected packet length average = 1
Accepted packet length average = 1
Total in-flight flits = 24 (24 measured)
====== Peak Queue Occupancy Statistics (Absolute Max) ======
  Overall Max VC Occupancy = 1
  Overall Max Buffer Occupancy = 2
latency change    = 0.000855235
throughput change = 0.123426
Class 0:
Packet latency average = 13.083
	minimum = 11
	maximum = 21
	95th percentile = 17.5
	99th percentile = 18.5
Network latency average = 13.083
	minimum = 11
	maximum = 21
	95th percentile = 17.5
	99th percentile = 18.5
Slowest packet = 17956
Flit latency average = 13.0826
	minimum = 11
	maximum = 21
	95th percentile = 17.5
	99th percentile = 18.5
Slowest flit = 17956
Fragmentation average = 0
	minimum = 0
	maximum = 0
Injected packet rate average = 0.226306
	minimum = 0.21725 (at node 2)
	maximum = 0.23425 (at node 7)
Accepted packet rate average = 0.22612
	minimum = 0.217083 (at node 6)
	maximum = 0.234167 (at node 5)
Injected flit rate average = 0.226306
	minimum = 0.21725 (at node 2)
	maximum = 0.23425 (at node 7)
Accepted flit rate average= 0.22612
	minimum = 0.217083 (at node 6)
	maximum = 0.234167 (at node 5)
Injected packet length average = 1
Accepted packet length average = 1
Total in-flight flits = 31 (31 measured)
====== Peak Queue Occupancy Statistics (Absolute Max) ======
  Overall Max VC Occupancy = 1
  Overall Max Buffer Occupancy = 2
latency change    = 0.00257066
throughput change = 0.111311
Class 0:
Packet latency average = 13.1243
	minimum = 11
	maximum = 21
	95th percentile = 18.5
	99th percentile = 19.5
Network latency average = 13.1243
	minimum = 11
	maximum = 21
	95th percentile = 18.5
	99th percentile = 19.5
Slowest packet = 17956
Flit latency average = 13.1239
	minimum = 11
	maximum = 21
	95th percentile = 18.5
	99th percentile = 19.5
Slowest flit = 17956
Fragmentation average = 0
	minimum = 0
	maximum = 0
Injected packet rate average = 0.250859
	minimum = 0.243933 (at node 2)
	maximum = 0.2578 (at node 7)
Accepted packet rate average = 0.25063
	minimum = 0.243733 (at node 6)
	maximum = 0.2574 (at node 5)
Injected flit rate average = 0.250859
	minimum = 0.243933 (at node 2)
	maximum = 0.2578 (at node 7)
Accepted flit rate average= 0.25063
	minimum = 0.243733 (at node 6)
	maximum = 0.2574 (at node 5)
Injected packet length average = 1
Accepted packet length average = 1
Total in-flight flits = 42 (42 measured)
====== Peak Queue Occupancy Statistics (Absolute Max) ======
  Overall Max VC Occupancy = 1
  Overall Max Buffer Occupancy = 2
latency change    = 0.00314396
throughput change = 0.0977907
Class 0:
Packet latency average = 13.1907
	minimum = 11
	maximum = 24
	95th percentile = 18.5
	99th percentile = 19.5
Network latency average = 13.1907
	minimum = 11
	maximum = 24
	95th percentile = 18.5
	99th percentile = 19.5
Slowest packet = 42353
Flit latency average = 13.1904
	minimum = 11
	maximum = 24
	95th percentile = 18.5
	99th percentile = 19.5
Slowest flit = 42353
Fragmentation average = 0
	minimum = 0
	maximum = 0
Injected packet rate average = 0.275938
	minimum = 0.269 (at node 2)
	maximum = 0.282056 (at node 7)
Accepted packet rate average = 0.275623
	minimum = 0.268444 (at node 6)
	maximum = 0.281833 (at node 5)
Injected flit rate average = 0.275938
	minimum = 0.269 (at node 2)
	maximum = 0.282056 (at node 7)
Accepted flit rate average= 0.275623
	minimum = 0.268444 (at node 6)
	maximum = 0.281833 (at node 5)
Injected packet length average = 1
Accepted packet length average = 1
Total in-flight flits = 62 (62 measured)
====== Peak Queue Occupancy Statistics (Absolute Max) ======
  Overall Max VC Occupancy = 1
  Overall Max Buffer Occupancy = 2
latency change    = 0.00503369
throughput change = 0.0906811
Class 0:
Packet latency average = 13.3993
	minimum = 11
	maximum = 33
	95th percentile = 18.5
	99th percentile = 22.5
Network latency average = 13.3993
	minimum = 11
	maximum = 33
	95th percentile = 18.5
	99th percentile = 22.5
Slowest packet = 55205
Flit latency average = 13.3991
	minimum = 11
	maximum = 33
	95th percentile = 18.5
	99th percentile = 22.5
Slowest flit = 55205
Fragmentation average = 0
	minimum = 0
	maximum = 0
Injected packet rate average = 0.301317
	minimum = 0.293857 (at node 2)
	maximum = 0.306905 (at node 7)
Accepted packet rate average = 0.301048
	minimum = 0.293429 (at node 6)
	maximum = 0.306619 (at node 5)
Injected flit rate average = 0.301317
	minimum = 0.293857 (at node 2)
	maximum = 0.306905 (at node 7)
Accepted flit rate average= 0.301048
	minimum = 0.293429 (at node 6)
	maximum = 0.306619 (at node 5)
Injected packet length average = 1
Accepted packet length average = 1
Total in-flight flits = 62 (62 measured)
====== Peak Queue Occupancy Statistics (Absolute Max) ======
  Overall Max VC Occupancy = 1
  Overall Max Buffer Occupancy = 2
latency change    = 0.0155724
throughput change = 0.0844523
Class 0:
Packet latency average = 15.2459
	minimum = 11
	maximum = 97
	95th percentile = 27.5
	99th percentile = 61.5
Network latency average = 15.2459
	minimum = 11
	maximum = 97
	95th percentile = 27.5
	99th percentile = 61.5
Slowest packet = 72101
Flit latency average = 15.2454
	minimum = 11
	maximum = 97
	95th percentile = 27.5
	99th percentile = 61.5
Slowest flit = 72101
Fragmentation average = 0
	minimum = 0
	maximum = 0
Injected packet rate average = 0.325671
	minimum = 0.318917 (at node 2)
	maximum = 0.330875 (at node 7)
Accepted packet rate average = 0.325208
	minimum = 0.318375 (at node 6)
	maximum = 0.330208 (at node 1)
Injected flit rate average = 0.325671
	minimum = 0.318917 (at node 2)
	maximum = 0.330875 (at node 7)
Accepted flit rate average= 0.325208
	minimum = 0.318375 (at node 6)
	maximum = 0.330208 (at node 1)
Injected packet length average = 1
Accepted packet length average = 1
Total in-flight flits = 111 (111 measured)
====== Peak Queue Occupancy Statistics (Absolute Max) ======
  Overall Max VC Occupancy = 1
  Overall Max Buffer Occupancy = 18
latency change    = 0.121118
throughput change = 0.074293
Class 0:
Packet latency average = 20.7901
	minimum = 11
	maximum = 487
	95th percentile = 70.5
	99th percentile = 141.5
Network latency average = 20.719
	minimum = 11
	maximum = 487
	95th percentile = 70.5
	99th percentile = 137.5
Slowest packet = 83125
Flit latency average = 20.7179
	minimum = 11
	maximum = 487
	95th percentile = 70.5
	99th percentile = 137.5
Slowest flit = 83125
Fragmentation average = 0
	minimum = 0
	maximum = 0
Injected packet rate average = 0.350856
	minimum = 0.345741 (at node 2)
	maximum = 0.354741 (at node 7)
Accepted packet rate average = 0.349967
	minimum = 0.343556 (at node 6)
	maximum = 0.35437 (at node 1)
Injected flit rate average = 0.350856
	minimum = 0.345741 (at node 2)
	maximum = 0.354741 (at node 7)
Accepted flit rate average= 0.349967
	minimum = 0.343556 (at node 6)
	maximum = 0.35437 (at node 1)
Injected packet length average = 1
Accepted packet length average = 1
Total in-flight flits = 227 (227 measured)
====== Peak Queue Occupancy Statistics (Absolute Max) ======
  Overall Max VC Occupancy = 1
  Overall Max Buffer Occupancy = 48
latency change    = 0.266676
throughput change = 0.0707459
Class 0:
Packet latency average = 26.7123
	minimum = 11
	maximum = 1558
	95th percentile = 95.5
	99th percentile = 208.5
Network latency average = 26.3165
	minimum = 11
	maximum = 1558
	95th percentile = 93.5
	99th percentile = 207.5
Slowest packet = 93378
Flit latency average = 26.3149
	minimum = 11
	maximum = 1558
	95th percentile = 93.5
	99th percentile = 207.5
Slowest flit = 93378
Fragmentation average = 0
	minimum = 0
	maximum = 0
Injected packet rate average = 0.375459
	minimum = 0.371467 (at node 2)
	maximum = 0.379333 (at node 6)
Accepted packet rate average = 0.374433
	minimum = 0.370167 (at node 6)
	maximum = 0.377367 (at node 2)
Injected flit rate average = 0.375459
	minimum = 0.371467 (at node 2)
	maximum = 0.379333 (at node 6)
Accepted flit rate average= 0.374433
	minimum = 0.370167 (at node 6)
	maximum = 0.377367 (at node 2)
Injected packet length average = 1
Accepted packet length average = 1
Total in-flight flits = 288 (288 measured)
====== Peak Queue Occupancy Statistics (Absolute Max) ======
  Overall Max VC Occupancy = 1
  Overall Max Buffer Occupancy = 48
latency change    = 0.221704
throughput change = 0.0653421
Class 0:
Packet latency average = 30.2893
	minimum = 11
	maximum = 1558
	95th percentile = 107.5
	99th percentile = 253.5
Network latency average = 29.7878
	minimum = 11
	maximum = 1558
	95th percentile = 104.5
	99th percentile = 251.5
Slowest packet = 93378
Flit latency average = 29.7861
	minimum = 11
	maximum = 1558
	95th percentile = 104.5
	99th percentile = 251.5
Slowest flit = 93378
Fragmentation average = 0
	minimum = 0
	maximum = 0
Injected packet rate average = 0.395593
	minimum = 0.391545 (at node 2)
	maximum = 0.399636 (at node 6)
Accepted packet rate average = 0.394886
	minimum = 0.390818 (at node 6)
	maximum = 0.398303 (at node 2)
Injected flit rate average = 0.395593
	minimum = 0.391545 (at node 2)
	maximum = 0.399636 (at node 6)
Accepted flit rate average= 0.394886
	minimum = 0.390818 (at node 6)
	maximum = 0.398303 (at node 2)
Injected packet length average = 1
Accepted packet length average = 1
Total in-flight flits = 221 (221 measured)
====== Peak Queue Occupancy Statistics (Absolute Max) ======
  Overall Max VC Occupancy = 1
  Overall Max Buffer Occupancy = 48
latency change    = 0.118095
throughput change = 0.0517927
Class 0:
Packet latency average = 32.3671
	minimum = 11
	maximum = 1558
	95th percentile = 117.5
	99th percentile = 263.5
Network latency average = 31.9265
	minimum = 11
	maximum = 1558
	95th percentile = 112.5
	99th percentile = 260.5
Slowest packet = 93378
Flit latency average = 31.9248
	minimum = 11
	maximum = 1558
	95th percentile = 112.5
	99th percentile = 260.5
Slowest flit = 93378
Fragmentation average = 0
	minimum = 0
	maximum = 0
Injected packet rate average = 0.412744
	minimum = 0.410444 (at node 2)
	maximum = 0.416306 (at node 7)
Accepted packet rate average = 0.41209
	minimum = 0.409361 (at node 6)
	maximum = 0.415278 (at node 5)
Injected flit rate average = 0.412744
	minimum = 0.410444 (at node 2)
	maximum = 0.416306 (at node 7)
Accepted flit rate average= 0.41209
	minimum = 0.409361 (at node 6)
	maximum = 0.415278 (at node 5)
Injected packet length average = 1
Accepted packet length average = 1
Total in-flight flits = 223 (223 measured)
====== Peak Queue Occupancy Statistics (Absolute Max) ======
  Overall Max VC Occupancy = 1
  Overall Max Buffer Occupancy = 48
latency change    = 0.064194
throughput change = 0.0417482
Class 0:
Packet latency average = 34.1523
	minimum = 11
	maximum = 1558
	95th percentile = 123.5
	99th percentile = 271.5
Network latency average = 33.7579
	minimum = 11
	maximum = 1558
	95th percentile = 120.5
	99th percentile = 269.5
Slowest packet = 93378
Flit latency average = 33.7563
	minimum = 11
	maximum = 1558
	95th percentile = 119.5
	99th percentile = 269.5
Slowest flit = 93378
Fragmentation average = 0
	minimum = 0
	maximum = 0
Injected packet rate average = 0.426994
	minimum = 0.424615 (at node 2)
	maximum = 0.430256 (at node 7)
Accepted packet rate average = 0.426464
	minimum = 0.423846 (at node 6)
	maximum = 0.42941 (at node 5)
Injected flit rate average = 0.426994
	minimum = 0.424615 (at node 2)
	maximum = 0.430256 (at node 7)
Accepted flit rate average= 0.426464
	minimum = 0.423846 (at node 6)
	maximum = 0.42941 (at node 5)
Injected packet length average = 1
Accepted packet length average = 1
Total in-flight flits = 197 (197 measured)
====== Peak Queue Occupancy Statistics (Absolute Max) ======
  Overall Max VC Occupancy = 1
  Overall Max Buffer Occupancy = 48
latency change    = 0.0522719
throughput change = 0.0337071
Class 0:
Packet latency average = 35.6378
	minimum = 11
	maximum = 1558
	95th percentile = 129.5
	99th percentile = 277.5
Network latency average = 35.2773
	minimum = 11
	maximum = 1558
	95th percentile = 126.5
	99th percentile = 274.5
Slowest packet = 93378
Flit latency average = 35.2757
	minimum = 11
	maximum = 1558
	95th percentile = 126.5
	99th percentile = 274.5
Slowest flit = 93378
Fragmentation average = 0
	minimum = 0
	maximum = 0
Injected packet rate average = 0.439537
	minimum = 0.437167 (at node 2)
	maximum = 0.442857 (at node 7)
Accepted packet rate average = 0.438921
	minimum = 0.436167 (at node 6)
	maximum = 0.44181 (at node 1)
Injected flit rate average = 0.439537
	minimum = 0.437167 (at node 2)
	maximum = 0.442857 (at node 7)
Accepted flit rate average= 0.438921
	minimum = 0.436167 (at node 6)
	maximum = 0.44181 (at node 1)
Injected packet length average = 1
Accepted packet length average = 1
Total in-flight flits = 244 (244 measured)
====== Peak Queue Occupancy Statistics (Absolute Max) ======
  Overall Max VC Occupancy = 1
  Overall Max Buffer Occupancy = 48
latency change    = 0.0416847
throughput change = 0.0283793
Class 0:
Packet latency average = 36.8045
	minimum = 11
	maximum = 1558
	95th percentile = 133.5
	99th percentile = 280.5
Network latency average = 36.4593
	minimum = 11
	maximum = 1558
	95th percentile = 130.5
	99th percentile = 276.5
Slowest packet = 93378
Flit latency average = 36.4578
	minimum = 11
	maximum = 1558
	95th percentile = 130.5
	99th percentile = 276.5
Slowest flit = 93378
Fragmentation average = 0
	minimum = 0
	maximum = 0
Injected packet rate average = 0.449953
	minimum = 0.447156 (at node 2)
	maximum = 0.4532 (at node 7)
Accepted packet rate average = 0.449412
	minimum = 0.445778 (at node 6)
	maximum = 0.452533 (at node 5)
Injected flit rate average = 0.449953
	minimum = 0.447156 (at node 2)
	maximum = 0.4532 (at node 7)
Accepted flit rate average= 0.449412
	minimum = 0.445778 (at node 6)
	maximum = 0.452533 (at node 5)
Injected packet length average = 1
Accepted packet length average = 1
Total in-flight flits = 230 (230 measured)
====== Peak Queue Occupancy Statistics (Absolute Max) ======
  Overall Max VC Occupancy = 1
  Overall Max Buffer Occupancy = 48
latency change    = 0.0316994
throughput change = 0.0233454
Class 0:
Packet latency average = 37.5564
	minimum = 11
	maximum = 1558
	95th percentile = 135.5
	99th percentile = 280.5
Network latency average = 37.2393
	minimum = 11
	maximum = 1558
	95th percentile = 133.5
	99th percentile = 278.5
Slowest packet = 93378
Flit latency average = 37.2379
	minimum = 11
	maximum = 1558
	95th percentile = 133.5
	99th percentile = 278.5
Slowest flit = 93378
Fragmentation average = 0
	minimum = 0
	maximum = 0
Injected packet rate average = 0.459243
	minimum = 0.456188 (at node 2)
	maximum = 0.462729 (at node 7)
Accepted packet rate average = 0.458671
	minimum = 0.455333 (at node 6)
	maximum = 0.461813 (at node 1)
Injected flit rate average = 0.459243
	minimum = 0.456188 (at node 2)
	maximum = 0.462729 (at node 7)
Accepted flit rate average= 0.458671
	minimum = 0.455333 (at node 6)
	maximum = 0.461813 (at node 1)
Injected packet length average = 1
Accepted packet length average = 1
Total in-flight flits = 258 (258 measured)
====== Peak Queue Occupancy Statistics (Absolute Max) ======
  Overall Max VC Occupancy = 1
  Overall Max Buffer Occupancy = 48
latency change    = 0.0200209
throughput change = 0.0201865
Draining all recorded packets ...
Draining remaining packets ...
Time taken is 54886 cycles
====== Overall Traffic Statistics ======
====== Traffic class 0 ======
Packet latency average = 37.6913 (1 samples)
	minimum = 11 (1 samples)
	maximum = 1558 (1 samples)
Network latency average = 37.3746 (1 samples)
	minimum = 11 (1 samples)
	maximum = 1558 (1 samples)
Flit latency average = 37.7836 (1 samples)
	minimum = 11 (1 samples)
	maximum = 1558 (1 samples)
Fragmentation average = 0 (1 samples)
	minimum = 0 (1 samples)
	maximum = 0 (1 samples)
Injected packet rate average = 0.459243 (1 samples)
	minimum = 0.456188 (1 samples)
	maximum = 0.462729 (1 samples)
Accepted packet rate average = 0.458671 (1 samples)
	minimum = 0.455333 (1 samples)
	maximum = 0.461813 (1 samples)
Injected flit rate average = 0.459243 (1 samples)
	minimum = 0.456188 (1 samples)
	maximum = 0.462729 (1 samples)
Accepted flit rate average = 0.458671 (1 samples)
	minimum = 0.455333 (1 samples)
	maximum = 0.461813 (1 samples)
Injected packet size average = 1 (1 samples)
Accepted packet size average = 1 (1 samples)
Hops average = 3.75892 (1 samples)
Total run time 12.3626
====== Hybrid Routing Split Statistics ======
XY packets = 161673
Racke packets = 44679
XY fraction = 0.783482
Racke fraction = 0.216518
Flow (0 -> 4) alpha=0.348312 xy_packets=17493 racke_packets=5419 racke_fraction=0.236514
Flow (1 -> 3) alpha=0.348312 xy_packets=17377 racke_packets=5433 racke_fraction=0.238185
Flow (2 -> 6) alpha=0.348312 xy_packets=17373 racke_packets=5441 racke_fraction=0.238494
Flow (3 -> 1) alpha=0.348312 xy_packets=18011 racke_packets=5042 racke_fraction=0.218713
Flow (4 -> 8) alpha=0 xy_packets=18559 racke_packets=4388 racke_fraction=0.191223
Flow (5 -> 7) alpha=0.616871 xy_packets=20244 racke_packets=2627 racke_fraction=0.114862
Flow (6 -> 2) alpha=0.616871 xy_packets=17500 racke_packets=5431 racke_fraction=0.236841
Flow (7 -> 5) alpha=0.616871 xy_packets=17661 racke_packets=5442 racke_fraction=0.235554
Flow (8 -> 0) alpha=0.616871 xy_packets=17455 racke_packets=5456 racke_fraction=0.238139
====== Hybrid Routing Window Statistics ======
Window [0,3000) xy_packets=1367 racke_packets=0 xy_fraction=1
Window [3000,6000) xy_packets=2655 racke_packets=0 xy_fraction=1
Window [6000,9000) xy_packets=4047 racke_packets=0 xy_fraction=1
Window [9000,12000) xy_packets=5482 racke_packets=0 xy_fraction=1
Window [12000,15000) xy_packets=6761 racke_packets=0 xy_fraction=1
Window [15000,18000) xy_packets=8151 racke_packets=0 xy_fraction=1
Window [18000,21000) xy_packets=9425 racke_packets=0 xy_fraction=1
Window [21000,24000) xy_packets=10836 racke_packets=0 xy_fraction=1
Window [24000,27000) xy_packets=12247 racke_packets=0 xy_fraction=1
Window [27000,30000) xy_packets=13396 racke_packets=0 xy_fraction=1
Window [30000,33000) xy_packets=12369 racke_packets=2544 xy_fraction=0.829411
Window [33000,36000) xy_packets=10341 racke_packets=5775 xy_fraction=0.64166
Window [36000,39000) xy_packets=9580 racke_packets=6537 xy_fraction=0.594403
Window [39000,42000) xy_packets=10288 racke_packets=5950 xy_fraction=0.633576
Window [42000,45000) xy_packets=10353 racke_packets=5793 xy_fraction=0.641211
Window [45000,48000) xy_packets=10319 racke_packets=5951 xy_fraction=0.634235
Window [48000,51000) xy_packets=10500 racke_packets=5586 xy_fraction=0.652742
Window [51000,54000) xy_packets=10516 racke_packets=5646 xy_fraction=0.650662
Window [54000,57000) xy_packets=3040 racke_packets=897 xy_fraction=0.772162

