BEGIN Configuration File: D:\noc_huawei\noc\booksim2-noc_speedup_study\booksim2-noc_speedup_study\tests\data\results\fixed_perm_growth_models_perm_4_3_6_1_8_7_2_5_0_peak_0p6_current_defaults\tmp_configs\linear_scale_hybrid_xy_racke_s2203.config
num_vcs     = 48;
vc_buf_size = 16;
wait_for_tail_credit = 1;

vc_allocator = islip;
sw_allocator = islip;
alloc_iters  = 16;

credit_delay   = 2;
routing_delay  = 0;
vc_alloc_delay = 1;
sw_alloc_delay = 1;
st_final_delay = 1;

input_speedup     = 1;
output_speedup    = 1;
internal_speedup  = 2.0;

sim_type = latency;
latency_thres  = 100000.0;
sim_count      = 1;
queue_sample_period_cycles = 0;

topology = mesh;
k  = 3;
n  = 2;

hybrid_transition_mode = linear_prob;
hybrid_xy_low_threshold = 0.35;
hybrid_racke_high_threshold = 0.65;
hybrid_buffer_soft_threshold = 0.50;
hybrid_buffer_hard_threshold = 0.85;
hybrid_buffer_release_threshold = 0.35;
hybrid_rate_soft_threshold = 0.55;
hybrid_rate_hard_threshold = 0.90;
hybrid_rate_weight = 0.25;
hybrid_congestion_alpha = 0.25;
hybrid_racke_increase_step = 0.25;
hybrid_racke_decrease_step = 0.10;
hybrid_epoch_cycles = 200;
hybrid_hold_cycles = 600;
hybrid_enable_midflight_override = 1;
hybrid_feedback_delay_per_hop = 1;
hybrid_flow_increase_step = 0.20;
hybrid_flow_decrease_step = 0.08;
hybrid_flow_hard_threshold = 0.95;

packet_size = 1;


ordered_injection_coefficients = {0.1666666667,0.3333333333,0.5};
ordered_injection_phase_cycles = {1000,1000,1000};
ordered_injection_source_order = {4,0,7,2,8,1,5,3,6};
ordered_injection_flow_peak_rate = 0.60;
warmup_periods = 2;
custom_perm_array = {4,3,6,1,8,7,2,5,0};
injection_process = scheduled;
injection_rate = 0.6;
scheduled_default_phase_cycles = 3000;
perm_seed = 2203;
hybrid_flow_hotspot_alpha = 0.85;
hybrid_stats_window_cycles = 3000;
hybrid_flow_hotspot_threshold = 1.1;
sample_period = 3000;
scheduled_injection_rates = {0.05,0.1,0.15,0.2,0.25,0.3,0.35,0.4,0.45,0.5,0.55,0.6,0.6,0.6};
traffic = custom_perm;
routing_function = hybrid_xy_racke;
scheduled_phase_cycles = {3000,3000,3000,3000,3000,3000,3000,3000,3000,3000,3000,3000,3000,3000};
seed = 2203;
max_samples = 22;

END Configuration File: D:\noc_huawei\noc\booksim2-noc_speedup_study\booksim2-noc_speedup_study\tests\data\results\fixed_perm_growth_models_perm_4_3_6_1_8_7_2_5_0_peak_0p6_current_defaults\tmp_configs\linear_scale_hybrid_xy_racke_s2203.config
Class 0:
Packet latency average = 12.987
	minimum = 11
	maximum = 18
	95th percentile = 17.5
	99th percentile = 17.5
Network latency average = 12.987
	minimum = 11
	maximum = 18
	95th percentile = 17.5
	99th percentile = 17.5
Slowest packet = 10
Flit latency average = 12.987
	minimum = 11
	maximum = 18
	95th percentile = 17.5
	99th percentile = 17.5
Slowest flit = 10
Fragmentation average = 0
	minimum = 0
	maximum = 0
Injected packet rate average = 0.0513704
	minimum = 0.0443333 (at node 2)
	maximum = 0.0586667 (at node 6)
Accepted packet rate average = 0.0511111
	minimum = 0.044 (at node 6)
	maximum = 0.0583333 (at node 2)
Injected flit rate average = 0.0513704
	minimum = 0.0443333 (at node 2)
	maximum = 0.0586667 (at node 6)
Accepted flit rate average= 0.0511111
	minimum = 0.044 (at node 6)
	maximum = 0.0583333 (at node 2)
Injected packet length average = 1
Accepted packet length average = 1
Total in-flight flits = 7 (0 measured)
====== Peak Queue Occupancy Statistics (Absolute Max) ======
  Overall Max VC Occupancy = 1
  Overall Max Buffer Occupancy = 2
latency change    = 1
throughput change = 1
Class 0:
Packet latency average = 12.9868
	minimum = 11
	maximum = 19
	95th percentile = 17.5
	99th percentile = 18.5
Network latency average = 12.9868
	minimum = 11
	maximum = 19
	95th percentile = 17.5
	99th percentile = 18.5
Slowest packet = 1545
Flit latency average = 12.9868
	minimum = 11
	maximum = 19
	95th percentile = 17.5
	99th percentile = 18.5
Slowest flit = 1545
Fragmentation average = 0
	minimum = 0
	maximum = 0
Injected packet rate average = 0.0757963
	minimum = 0.0723333 (at node 1)
	maximum = 0.0813333 (at node 5)
Accepted packet rate average = 0.0756296
	minimum = 0.0723333 (at node 3)
	maximum = 0.0811667 (at node 7)
Injected flit rate average = 0.0757963
	minimum = 0.0723333 (at node 1)
	maximum = 0.0813333 (at node 5)
Accepted flit rate average= 0.0756296
	minimum = 0.0723333 (at node 3)
	maximum = 0.0811667 (at node 7)
Injected packet length average = 1
Accepted packet length average = 1
Total in-flight flits = 9 (0 measured)
====== Peak Queue Occupancy Statistics (Absolute Max) ======
  Overall Max VC Occupancy = 1
  Overall Max Buffer Occupancy = 2
latency change    = 1.37719e-05
throughput change = 0.324192
Warmed up ...Time used is 6000 cycles
Class 0:
Packet latency average = 13.0223
	minimum = 11
	maximum = 19
	95th percentile = 17.5
	99th percentile = 18.5
Network latency average = 13.0223
	minimum = 11
	maximum = 19
	95th percentile = 17.5
	99th percentile = 18.5
Slowest packet = 4726
Flit latency average = 13.0223
	minimum = 11
	maximum = 19
	95th percentile = 17.5
	99th percentile = 18.5
Slowest flit = 4726
Fragmentation average = 0
	minimum = 0
	maximum = 0
Injected packet rate average = 0.153074
	minimum = 0.145333 (at node 1)
	maximum = 0.163333 (at node 5)
Accepted packet rate average = 0.152926
	minimum = 0.144667 (at node 3)
	maximum = 0.163333 (at node 7)
Injected flit rate average = 0.153074
	minimum = 0.145333 (at node 1)
	maximum = 0.163333 (at node 5)
Accepted flit rate average= 0.152926
	minimum = 0.144667 (at node 3)
	maximum = 0.163333 (at node 7)
Injected packet length average = 1
Accepted packet length average = 1
Total in-flight flits = 13 (13 measured)
====== Peak Queue Occupancy Statistics (Absolute Max) ======
  Overall Max VC Occupancy = 1
  Overall Max Buffer Occupancy = 2
latency change    = 0.00273011
throughput change = 0.505449
Class 0:
Packet latency average = 13.0779
	minimum = 11
	maximum = 19
	95th percentile = 17.5
	99th percentile = 18.5
Network latency average = 13.0779
	minimum = 11
	maximum = 19
	95th percentile = 17.5
	99th percentile = 18.5
Slowest packet = 4726
Flit latency average = 13.0778
	minimum = 11
	maximum = 19
	95th percentile = 17.5
	99th percentile = 18.5
Slowest flit = 4726
Fragmentation average = 0
	minimum = 0
	maximum = 0
Injected packet rate average = 0.177148
	minimum = 0.168833 (at node 0)
	maximum = 0.183167 (at node 8)
Accepted packet rate average = 0.177037
	minimum = 0.168833 (at node 4)
	maximum = 0.183333 (at node 0)
Injected flit rate average = 0.177148
	minimum = 0.168833 (at node 0)
	maximum = 0.183167 (at node 8)
Accepted flit rate average= 0.177037
	minimum = 0.168833 (at node 4)
	maximum = 0.183333 (at node 0)
Injected packet length average = 1
Accepted packet length average = 1
Total in-flight flits = 15 (15 measured)
====== Peak Queue Occupancy Statistics (Absolute Max) ======
  Overall Max VC Occupancy = 1
  Overall Max Buffer Occupancy = 2
latency change    = 0.00424896
throughput change = 0.136192
Class 0:
Packet latency average = 13.0926
	minimum = 11
	maximum = 21
	95th percentile = 17.5
	99th percentile = 18.5
Network latency average = 13.0926
	minimum = 11
	maximum = 21
	95th percentile = 17.5
	99th percentile = 18.5
Slowest packet = 17149
Flit latency average = 13.0926
	minimum = 11
	maximum = 21
	95th percentile = 17.5
	99th percentile = 18.5
Slowest flit = 17149
Fragmentation average = 0
	minimum = 0
	maximum = 0
Injected packet rate average = 0.202395
	minimum = 0.195444 (at node 6)
	maximum = 0.208 (at node 8)
Accepted packet rate average = 0.20216
	minimum = 0.195 (at node 2)
	maximum = 0.207778 (at node 0)
Injected flit rate average = 0.202395
	minimum = 0.195444 (at node 6)
	maximum = 0.208 (at node 8)
Accepted flit rate average= 0.20216
	minimum = 0.195 (at node 2)
	maximum = 0.207778 (at node 0)
Injected packet length average = 1
Accepted packet length average = 1
Total in-flight flits = 28 (28 measured)
====== Peak Queue Occupancy Statistics (Absolute Max) ======
  Overall Max VC Occupancy = 1
  Overall Max Buffer Occupancy = 2
latency change    = 0.00112532
throughput change = 0.124275
Class 0:
Packet latency average = 13.1273
	minimum = 11
	maximum = 21
	95th percentile = 17.5
	99th percentile = 18.5
Network latency average = 13.1273
	minimum = 11
	maximum = 21
	95th percentile = 17.5
	99th percentile = 18.5
Slowest packet = 17149
Flit latency average = 13.1272
	minimum = 11
	maximum = 21
	95th percentile = 17.5
	99th percentile = 18.5
Slowest flit = 17149
Fragmentation average = 0
	minimum = 0
	maximum = 0
Injected packet rate average = 0.227157
	minimum = 0.219167 (at node 6)
	maximum = 0.234333 (at node 8)
Accepted packet rate average = 0.226944
	minimum = 0.218833 (at node 2)
	maximum = 0.234167 (at node 0)
Injected flit rate average = 0.227157
	minimum = 0.219167 (at node 6)
	maximum = 0.234333 (at node 8)
Accepted flit rate average= 0.226944
	minimum = 0.218833 (at node 2)
	maximum = 0.234167 (at node 0)
Injected packet length average = 1
Accepted packet length average = 1
Total in-flight flits = 32 (32 measured)
====== Peak Queue Occupancy Statistics (Absolute Max) ======
  Overall Max VC Occupancy = 1
  Overall Max Buffer Occupancy = 2
latency change    = 0.00263795
throughput change = 0.109207
Class 0:
Packet latency average = 13.1607
	minimum = 11
	maximum = 22
	95th percentile = 18.5
	99th percentile = 19.5
Network latency average = 13.1607
	minimum = 11
	maximum = 22
	95th percentile = 18.5
	99th percentile = 19.5
Slowest packet = 33722
Flit latency average = 13.1606
	minimum = 11
	maximum = 22
	95th percentile = 18.5
	99th percentile = 19.5
Slowest flit = 33722
Fragmentation average = 0
	minimum = 0
	maximum = 0
Injected packet rate average = 0.252178
	minimum = 0.2454 (at node 6)
	maximum = 0.259333 (at node 8)
Accepted packet rate average = 0.251904
	minimum = 0.245133 (at node 2)
	maximum = 0.259 (at node 0)
Injected flit rate average = 0.252178
	minimum = 0.2454 (at node 6)
	maximum = 0.259333 (at node 8)
Accepted flit rate average= 0.251904
	minimum = 0.245133 (at node 2)
	maximum = 0.259 (at node 0)
Injected packet length average = 1
Accepted packet length average = 1
Total in-flight flits = 46 (46 measured)
====== Peak Queue Occupancy Statistics (Absolute Max) ======
  Overall Max VC Occupancy = 1
  Overall Max Buffer Occupancy = 2
latency change    = 0.00253982
throughput change = 0.0990825
Class 0:
Packet latency average = 13.248
	minimum = 11
	maximum = 26
	95th percentile = 18.5
	99th percentile = 19.5
Network latency average = 13.248
	minimum = 11
	maximum = 26
	95th percentile = 18.5
	99th percentile = 19.5
Slowest packet = 42617
Flit latency average = 13.2479
	minimum = 11
	maximum = 26
	95th percentile = 18.5
	99th percentile = 19.5
Slowest flit = 42617
Fragmentation average = 0
	minimum = 0
	maximum = 0
Injected packet rate average = 0.276932
	minimum = 0.273444 (at node 1)
	maximum = 0.283444 (at node 8)
Accepted packet rate average = 0.276654
	minimum = 0.273056 (at node 3)
	maximum = 0.283167 (at node 0)
Injected flit rate average = 0.276932
	minimum = 0.273444 (at node 1)
	maximum = 0.283444 (at node 8)
Accepted flit rate average= 0.276654
	minimum = 0.273056 (at node 3)
	maximum = 0.283167 (at node 0)
Injected packet length average = 1
Accepted packet length average = 1
Total in-flight flits = 54 (54 measured)
====== Peak Queue Occupancy Statistics (Absolute Max) ======
  Overall Max VC Occupancy = 1
  Overall Max Buffer Occupancy = 2
latency change    = 0.00658968
throughput change = 0.0894641
Class 0:
Packet latency average = 13.3637
	minimum = 11
	maximum = 29
	95th percentile = 18.5
	99th percentile = 21.5
Network latency average = 13.3637
	minimum = 11
	maximum = 29
	95th percentile = 18.5
	99th percentile = 21.5
Slowest packet = 50279
Flit latency average = 13.3637
	minimum = 11
	maximum = 29
	95th percentile = 18.5
	99th percentile = 21.5
Slowest flit = 50279
Fragmentation average = 0
	minimum = 0
	maximum = 0
Injected packet rate average = 0.302053
	minimum = 0.294905 (at node 1)
	maximum = 0.30881 (at node 8)
Accepted packet rate average = 0.301794
	minimum = 0.294762 (at node 3)
	maximum = 0.308619 (at node 0)
Injected flit rate average = 0.302053
	minimum = 0.294905 (at node 1)
	maximum = 0.30881 (at node 8)
Accepted flit rate average= 0.301794
	minimum = 0.294762 (at node 3)
	maximum = 0.308619 (at node 0)
Injected packet length average = 1
Accepted packet length average = 1
Total in-flight flits = 58 (58 measured)
====== Peak Queue Occupancy Statistics (Absolute Max) ======
  Overall Max VC Occupancy = 1
  Overall Max Buffer Occupancy = 2
latency change    = 0.00866168
throughput change = 0.0832997
Class 0:
Packet latency average = 14.9017
	minimum = 11
	maximum = 84
	95th percentile = 24.5
	99th percentile = 55.5
Network latency average = 14.9017
	minimum = 11
	maximum = 84
	95th percentile = 24.5
	99th percentile = 55.5
Slowest packet = 70471
Flit latency average = 14.9015
	minimum = 11
	maximum = 84
	95th percentile = 24.5
	99th percentile = 55.5
Slowest flit = 70471
Fragmentation average = 0
	minimum = 0
	maximum = 0
Injected packet rate average = 0.326856
	minimum = 0.320958 (at node 1)
	maximum = 0.332375 (at node 8)
Accepted packet rate average = 0.326343
	minimum = 0.320042 (at node 3)
	maximum = 0.332167 (at node 0)
Injected flit rate average = 0.326856
	minimum = 0.320958 (at node 1)
	maximum = 0.332375 (at node 8)
Accepted flit rate average= 0.326343
	minimum = 0.320042 (at node 3)
	maximum = 0.332167 (at node 0)
Injected packet length average = 1
Accepted packet length average = 1
Total in-flight flits = 120 (120 measured)
====== Peak Queue Occupancy Statistics (Absolute Max) ======
  Overall Max VC Occupancy = 1
  Overall Max Buffer Occupancy = 17
latency change    = 0.103207
throughput change = 0.0752244
Class 0:
Packet latency average = 21.1205
	minimum = 11
	maximum = 791
	95th percentile = 73.5
	99th percentile = 147.5
Network latency average = 21.1204
	minimum = 11
	maximum = 791
	95th percentile = 73.5
	99th percentile = 147.5
Slowest packet = 84472
Flit latency average = 21.1196
	minimum = 11
	maximum = 791
	95th percentile = 73.5
	99th percentile = 147.5
Slowest flit = 84472
Fragmentation average = 0
	minimum = 0
	maximum = 0
Injected packet rate average = 0.351704
	minimum = 0.347593 (at node 1)
	maximum = 0.356111 (at node 4)
Accepted packet rate average = 0.350819
	minimum = 0.345111 (at node 3)
	maximum = 0.355815 (at node 8)
Injected flit rate average = 0.351704
	minimum = 0.347593 (at node 1)
	maximum = 0.356111 (at node 4)
Accepted flit rate average= 0.350819
	minimum = 0.345111 (at node 3)
	maximum = 0.355815 (at node 8)
Injected packet length average = 1
Accepted packet length average = 1
Total in-flight flits = 224 (224 measured)
====== Peak Queue Occupancy Statistics (Absolute Max) ======
  Overall Max VC Occupancy = 1
  Overall Max Buffer Occupancy = 48
latency change    = 0.294444
throughput change = 0.0697691
Class 0:
Packet latency average = 26.9852
	minimum = 11
	maximum = 986
	95th percentile = 99.5
	99th percentile = 224.5
Network latency average = 26.7093
	minimum = 11
	maximum = 986
	95th percentile = 98.5
	99th percentile = 221.5
Slowest packet = 96187
Flit latency average = 26.7081
	minimum = 11
	maximum = 986
	95th percentile = 98.5
	99th percentile = 221.5
Slowest flit = 96187
Fragmentation average = 0
	minimum = 0
	maximum = 0
Injected packet rate average = 0.376941
	minimum = 0.3745 (at node 1)
	maximum = 0.381467 (at node 4)
Accepted packet rate average = 0.37597
	minimum = 0.372667 (at node 3)
	maximum = 0.381167 (at node 8)
Injected flit rate average = 0.376941
	minimum = 0.3745 (at node 1)
	maximum = 0.381467 (at node 4)
Accepted flit rate average= 0.37597
	minimum = 0.372667 (at node 3)
	maximum = 0.381167 (at node 8)
Injected packet length average = 1
Accepted packet length average = 1
Total in-flight flits = 271 (271 measured)
====== Peak Queue Occupancy Statistics (Absolute Max) ======
  Overall Max VC Occupancy = 1
  Overall Max Buffer Occupancy = 48
latency change    = 0.21733
throughput change = 0.0668974
Class 0:
Packet latency average = 30.9436
	minimum = 11
	maximum = 1099
	95th percentile = 111.5
	99th percentile = 262.5
Network latency average = 30.5918
	minimum = 11
	maximum = 1099
	95th percentile = 109.5
	99th percentile = 259.5
Slowest packet = 111558
Flit latency average = 30.5905
	minimum = 11
	maximum = 1099
	95th percentile = 109.5
	99th percentile = 259.5
Slowest flit = 111558
Fragmentation average = 0
	minimum = 0
	maximum = 0
Injected packet rate average = 0.39769
	minimum = 0.395212 (at node 5)
	maximum = 0.402606 (at node 8)
Accepted packet rate average = 0.396582
	minimum = 0.393273 (at node 2)
	maximum = 0.401939 (at node 0)
Injected flit rate average = 0.39769
	minimum = 0.395212 (at node 5)
	maximum = 0.402606 (at node 8)
Accepted flit rate average= 0.396582
	minimum = 0.393273 (at node 2)
	maximum = 0.401939 (at node 0)
Injected packet length average = 1
Accepted packet length average = 1
Total in-flight flits = 339 (339 measured)
====== Peak Queue Occupancy Statistics (Absolute Max) ======
  Overall Max VC Occupancy = 1
  Overall Max Buffer Occupancy = 48
latency change    = 0.127922
throughput change = 0.0519744
Class 0:
Packet latency average = 34.4757
	minimum = 11
	maximum = 1099
	95th percentile = 126.5
	99th percentile = 293.5
Network latency average = 34.0843
	minimum = 11
	maximum = 1099
	95th percentile = 123.5
	99th percentile = 290.5
Slowest packet = 111558
Flit latency average = 34.0829
	minimum = 11
	maximum = 1099
	95th percentile = 123.5
	99th percentile = 290.5
Slowest flit = 111558
Fragmentation average = 0
	minimum = 0
	maximum = 0
Injected packet rate average = 0.414531
	minimum = 0.41275 (at node 6)
	maximum = 0.418083 (at node 8)
Accepted packet rate average = 0.413725
	minimum = 0.411694 (at node 3)
	maximum = 0.417556 (at node 8)
Injected flit rate average = 0.414531
	minimum = 0.41275 (at node 6)
	maximum = 0.418083 (at node 8)
Accepted flit rate average= 0.413725
	minimum = 0.411694 (at node 3)
	maximum = 0.417556 (at node 8)
Injected packet length average = 1
Accepted packet length average = 1
Total in-flight flits = 270 (270 measured)
====== Peak Queue Occupancy Statistics (Absolute Max) ======
  Overall Max VC Occupancy = 1
  Overall Max Buffer Occupancy = 48
latency change    = 0.102453
throughput change = 0.0414353
Class 0:
Packet latency average = 37.0823
	minimum = 11
	maximum = 1177
	95th percentile = 135.5
	99th percentile = 308.5
Network latency average = 36.6561
	minimum = 11
	maximum = 1177
	95th percentile = 132.5
	99th percentile = 305.5
Slowest packet = 142674
Flit latency average = 36.6546
	minimum = 11
	maximum = 1177
	95th percentile = 132.5
	99th percentile = 305.5
Slowest flit = 142674
Fragmentation average = 0
	minimum = 0
	maximum = 0
Injected packet rate average = 0.429068
	minimum = 0.426949 (at node 5)
	maximum = 0.431821 (at node 8)
Accepted packet rate average = 0.427932
	minimum = 0.425077 (at node 6)
	maximum = 0.431128 (at node 8)
Injected flit rate average = 0.429068
	minimum = 0.426949 (at node 5)
	maximum = 0.431821 (at node 8)
Accepted flit rate average= 0.427932
	minimum = 0.425077 (at node 6)
	maximum = 0.431128 (at node 8)
Injected packet length average = 1
Accepted packet length average = 1
Total in-flight flits = 408 (408 measured)
====== Peak Queue Occupancy Statistics (Absolute Max) ======
  Overall Max VC Occupancy = 1
  Overall Max Buffer Occupancy = 48
latency change    = 0.0702922
throughput change = 0.0331976
Class 0:
Packet latency average = 39.0526
	minimum = 11
	maximum = 1177
	95th percentile = 142.5
	99th percentile = 326.5
Network latency average = 38.6418
	minimum = 11
	maximum = 1177
	95th percentile = 140.5
	99th percentile = 323.5
Slowest packet = 142674
Flit latency average = 38.6405
	minimum = 11
	maximum = 1177
	95th percentile = 140.5
	99th percentile = 323.5
Slowest flit = 142674
Fragmentation average = 0
	minimum = 0
	maximum = 0
Injected packet rate average = 0.441071
	minimum = 0.439238 (at node 5)
	maximum = 0.44369 (at node 4)
Accepted packet rate average = 0.440249
	minimum = 0.437929 (at node 2)
	maximum = 0.443571 (at node 8)
Injected flit rate average = 0.441071
	minimum = 0.439238 (at node 5)
	maximum = 0.44369 (at node 4)
Accepted flit rate average= 0.440249
	minimum = 0.437929 (at node 2)
	maximum = 0.443571 (at node 8)
Injected packet length average = 1
Accepted packet length average = 1
Total in-flight flits = 321 (321 measured)
====== Peak Queue Occupancy Statistics (Absolute Max) ======
  Overall Max VC Occupancy = 1
  Overall Max Buffer Occupancy = 48
latency change    = 0.0504517
throughput change = 0.0279775
Class 0:
Packet latency average = 40.6849
	minimum = 11
	maximum = 1246
	95th percentile = 149.5
	99th percentile = 333.5
Network latency average = 40.2179
	minimum = 11
	maximum = 1246
	95th percentile = 146.5
	99th percentile = 331.5
Slowest packet = 172836
Flit latency average = 40.2166
	minimum = 11
	maximum = 1246
	95th percentile = 146.5
	99th percentile = 331.5
Slowest flit = 172836
Fragmentation average = 0
	minimum = 0
	maximum = 0
Injected packet rate average = 0.451731
	minimum = 0.4498 (at node 5)
	maximum = 0.454289 (at node 4)
Accepted packet rate average = 0.45124
	minimum = 0.449667 (at node 7)
	maximum = 0.454067 (at node 8)
Injected flit rate average = 0.451731
	minimum = 0.4498 (at node 5)
	maximum = 0.454289 (at node 4)
Accepted flit rate average= 0.45124
	minimum = 0.449667 (at node 7)
	maximum = 0.454067 (at node 8)
Injected packet length average = 1
Accepted packet length average = 1
Total in-flight flits = 208 (208 measured)
====== Peak Queue Occupancy Statistics (Absolute Max) ======
  Overall Max VC Occupancy = 1
  Overall Max Buffer Occupancy = 48
latency change    = 0.0401208
throughput change = 0.024357
Class 0:
Packet latency average = 41.7477
	minimum = 11
	maximum = 1246
	95th percentile = 152.5
	99th percentile = 340.5
Network latency average = 41.3121
	minimum = 11
	maximum = 1246
	95th percentile = 149.5
	99th percentile = 338.5
Slowest packet = 172836
Flit latency average = 41.3108
	minimum = 11
	maximum = 1246
	95th percentile = 149.5
	99th percentile = 338.5
Slowest flit = 172836
Fragmentation average = 0
	minimum = 0
	maximum = 0
Injected packet rate average = 0.461204
	minimum = 0.458979 (at node 3)
	maximum = 0.464438 (at node 4)
Accepted packet rate average = 0.460611
	minimum = 0.458396 (at node 1)
	maximum = 0.46425 (at node 8)
Injected flit rate average = 0.461204
	minimum = 0.458979 (at node 3)
	maximum = 0.464438 (at node 4)
Accepted flit rate average= 0.460611
	minimum = 0.458396 (at node 1)
	maximum = 0.46425 (at node 8)
Injected packet length average = 1
Accepted packet length average = 1
Total in-flight flits = 265 (265 measured)
====== Peak Queue Occupancy Statistics (Absolute Max) ======
  Overall Max VC Occupancy = 1
  Overall Max Buffer Occupancy = 48
latency change    = 0.0254576
throughput change = 0.020346
Class 0:
Packet latency average = 42.1473
	minimum = 11
	maximum = 1246
	95th percentile = 153.5
	99th percentile = 335.5
Network latency average = 41.7444
	minimum = 11
	maximum = 1246
	95th percentile = 150.5
	99th percentile = 332.5
Slowest packet = 172836
Flit latency average = 41.7432
	minimum = 11
	maximum = 1246
	95th percentile = 150.5
	99th percentile = 332.5
Slowest flit = 172836
Fragmentation average = 0
	minimum = 0
	maximum = 0
Injected packet rate average = 0.46919
	minimum = 0.467451 (at node 3)
	maximum = 0.471863 (at node 4)
Accepted packet rate average = 0.468754
	minimum = 0.467353 (at node 1)
	maximum = 0.471784 (at node 8)
Injected flit rate average = 0.46919
	minimum = 0.467451 (at node 3)
	maximum = 0.471863 (at node 4)
Accepted flit rate average= 0.468754
	minimum = 0.467353 (at node 1)
	maximum = 0.471784 (at node 8)
Injected packet length average = 1
Accepted packet length average = 1
Total in-flight flits = 209 (209 measured)
====== Peak Queue Occupancy Statistics (Absolute Max) ======
  Overall Max VC Occupancy = 1
  Overall Max Buffer Occupancy = 48
latency change    = 0.00948131
throughput change = 0.017371
Draining all recorded packets ...
Draining remaining packets ...
Time taken is 57556 cycles
====== Overall Traffic Statistics ======
====== Traffic class 0 ======
Packet latency average = 42.2168 (1 samples)
	minimum = 11 (1 samples)
	maximum = 1246 (1 samples)
Network latency average = 41.8143 (1 samples)
	minimum = 11 (1 samples)
	maximum = 1246 (1 samples)
Flit latency average = 41.7711 (1 samples)
	minimum = 11 (1 samples)
	maximum = 1246 (1 samples)
Fragmentation average = 0 (1 samples)
	minimum = 0 (1 samples)
	maximum = 0 (1 samples)
Injected packet rate average = 0.46919 (1 samples)
	minimum = 0.467451 (1 samples)
	maximum = 0.471863 (1 samples)
Accepted packet rate average = 0.468754 (1 samples)
	minimum = 0.467353 (1 samples)
	maximum = 0.471784 (1 samples)
Injected flit rate average = 0.46919 (1 samples)
	minimum = 0.467451 (1 samples)
	maximum = 0.471863 (1 samples)
Accepted flit rate average = 0.468754 (1 samples)
	minimum = 0.467353 (1 samples)
	maximum = 0.471784 (1 samples)
Injected packet size average = 1 (1 samples)
Accepted packet size average = 1 (1 samples)
Hops average = 3.76914 (1 samples)
Total run time 13.678
====== Hybrid Routing Split Statistics ======
XY packets = 169091
Racke packets = 52704
XY fraction = 0.762375
Racke fraction = 0.237625
Flow (0 -> 4) alpha=0.550021 xy_packets=18003 racke_packets=6596 racke_fraction=0.268141
Flow (1 -> 3) alpha=0.550027 xy_packets=18012 racke_packets=6570 racke_fraction=0.267269
Flow (2 -> 6) alpha=0.550029 xy_packets=18109 racke_packets=6511 racke_fraction=0.26446
Flow (3 -> 1) alpha=0.550006 xy_packets=18949 racke_packets=5602 racke_fraction=0.228178
Flow (4 -> 8) alpha=0.195013 xy_packets=19841 racke_packets=4936 racke_fraction=0.199217
Flow (5 -> 7) alpha=0 xy_packets=21235 racke_packets=3402 racke_fraction=0.138085
Flow (6 -> 2) alpha=0.194439 xy_packets=18214 racke_packets=6396 racke_fraction=0.259894
Flow (7 -> 5) alpha=0.193542 xy_packets=18381 racke_packets=6283 racke_fraction=0.254744
Flow (8 -> 0) alpha=0.19265 xy_packets=18347 racke_packets=6408 racke_fraction=0.258857
====== Hybrid Routing Window Statistics ======
Window [0,3000) xy_packets=1387 racke_packets=0 xy_fraction=1
Window [3000,6000) xy_packets=2706 racke_packets=0 xy_fraction=1
Window [6000,9000) xy_packets=4133 racke_packets=0 xy_fraction=1
Window [9000,12000) xy_packets=5433 racke_packets=0 xy_fraction=1
Window [12000,15000) xy_packets=6828 racke_packets=0 xy_fraction=1
Window [15000,18000) xy_packets=8139 racke_packets=0 xy_fraction=1
Window [18000,21000) xy_packets=9511 racke_packets=0 xy_fraction=1
Window [21000,24000) xy_packets=10819 racke_packets=0 xy_fraction=1
Window [24000,27000) xy_packets=12225 racke_packets=0 xy_fraction=1
Window [27000,30000) xy_packets=13513 racke_packets=0 xy_fraction=1
Window [30000,33000) xy_packets=11681 racke_packets=3182 xy_fraction=0.785911
Window [33000,36000) xy_packets=10565 racke_packets=5745 xy_fraction=0.647762
Window [36000,39000) xy_packets=10565 racke_packets=5776 xy_fraction=0.646533
Window [39000,42000) xy_packets=9435 racke_packets=6758 xy_fraction=0.582659
Window [42000,45000) xy_packets=10318 racke_packets=5977 xy_fraction=0.6332
Window [45000,48000) xy_packets=10234 racke_packets=5889 xy_fraction=0.634745
Window [48000,51000) xy_packets=9411 racke_packets=6814 xy_fraction=0.580031
Window [51000,54000) xy_packets=10381 racke_packets=5908 xy_fraction=0.637301
Window [54000,57000) xy_packets=10343 racke_packets=5775 xy_fraction=0.641705
Window [57000,60000) xy_packets=1464 racke_packets=880 xy_fraction=0.624573

