BEGIN Configuration File: D:\noc_huawei\noc\booksim2-noc_speedup_study\booksim2-noc_speedup_study\tests\data\results\fixed_perm_growth_models_perm_4_3_6_1_8_7_2_5_0_peak_0p6_current_defaults\tmp_configs\linear_scale_hybrid_xy_racke_s2201.config
num_vcs     = 48;
vc_buf_size = 16;
wait_for_tail_credit = 1;

vc_allocator = islip;
sw_allocator = islip;
alloc_iters  = 16;

credit_delay   = 2;
routing_delay  = 0;
vc_alloc_delay = 1;
sw_alloc_delay = 1;
st_final_delay = 1;

input_speedup     = 1;
output_speedup    = 1;
internal_speedup  = 2.0;

sim_type = latency;
latency_thres  = 100000.0;
sim_count      = 1;
queue_sample_period_cycles = 0;

topology = mesh;
k  = 3;
n  = 2;

hybrid_transition_mode = linear_prob;
hybrid_xy_low_threshold = 0.35;
hybrid_racke_high_threshold = 0.65;
hybrid_buffer_soft_threshold = 0.50;
hybrid_buffer_hard_threshold = 0.85;
hybrid_buffer_release_threshold = 0.35;
hybrid_rate_soft_threshold = 0.55;
hybrid_rate_hard_threshold = 0.90;
hybrid_rate_weight = 0.25;
hybrid_congestion_alpha = 0.25;
hybrid_racke_increase_step = 0.25;
hybrid_racke_decrease_step = 0.10;
hybrid_epoch_cycles = 200;
hybrid_hold_cycles = 600;
hybrid_enable_midflight_override = 1;
hybrid_feedback_delay_per_hop = 1;
hybrid_flow_increase_step = 0.20;
hybrid_flow_decrease_step = 0.08;
hybrid_flow_hard_threshold = 0.95;

packet_size = 1;


ordered_injection_coefficients = {0.1666666667,0.3333333333,0.5};
ordered_injection_phase_cycles = {1000,1000,1000};
ordered_injection_source_order = {4,0,7,2,8,1,5,3,6};
ordered_injection_flow_peak_rate = 0.60;
warmup_periods = 2;
custom_perm_array = {4,3,6,1,8,7,2,5,0};
injection_process = scheduled;
injection_rate = 0.6;
scheduled_default_phase_cycles = 3000;
perm_seed = 2201;
hybrid_flow_hotspot_alpha = 0.85;
hybrid_stats_window_cycles = 3000;
hybrid_flow_hotspot_threshold = 1.1;
sample_period = 3000;
scheduled_injection_rates = {0.05,0.1,0.15,0.2,0.25,0.3,0.35,0.4,0.45,0.5,0.55,0.6,0.6,0.6};
traffic = custom_perm;
routing_function = hybrid_xy_racke;
scheduled_phase_cycles = {3000,3000,3000,3000,3000,3000,3000,3000,3000,3000,3000,3000,3000,3000};
seed = 2201;
max_samples = 22;

END Configuration File: D:\noc_huawei\noc\booksim2-noc_speedup_study\booksim2-noc_speedup_study\tests\data\results\fixed_perm_growth_models_perm_4_3_6_1_8_7_2_5_0_peak_0p6_current_defaults\tmp_configs\linear_scale_hybrid_xy_racke_s2201.config
Class 0:
Packet latency average = 13.0523
	minimum = 11
	maximum = 18
	95th percentile = 17.5
	99th percentile = 17.5
Network latency average = 13.0523
	minimum = 11
	maximum = 18
	95th percentile = 17.5
	99th percentile = 17.5
Slowest packet = 269
Flit latency average = 13.0523
	minimum = 11
	maximum = 18
	95th percentile = 17.5
	99th percentile = 17.5
Slowest flit = 269
Fragmentation average = 0
	minimum = 0
	maximum = 0
Injected packet rate average = 0.0482963
	minimum = 0.044 (at node 4)
	maximum = 0.054 (at node 6)
Accepted packet rate average = 0.0481111
	minimum = 0.0436667 (at node 8)
	maximum = 0.054 (at node 2)
Injected flit rate average = 0.0482963
	minimum = 0.044 (at node 4)
	maximum = 0.054 (at node 6)
Accepted flit rate average= 0.0481111
	minimum = 0.0436667 (at node 8)
	maximum = 0.054 (at node 2)
Injected packet length average = 1
Accepted packet length average = 1
Total in-flight flits = 5 (0 measured)
====== Peak Queue Occupancy Statistics (Absolute Max) ======
  Overall Max VC Occupancy = 1
  Overall Max Buffer Occupancy = 1
latency change    = 1
throughput change = 1
Class 0:
Packet latency average = 13.0399
	minimum = 11
	maximum = 18
	95th percentile = 17.5
	99th percentile = 18.5
Network latency average = 13.0399
	minimum = 11
	maximum = 18
	95th percentile = 17.5
	99th percentile = 18.5
Slowest packet = 269
Flit latency average = 13.0399
	minimum = 11
	maximum = 18
	95th percentile = 17.5
	99th percentile = 18.5
Slowest flit = 269
Fragmentation average = 0
	minimum = 0
	maximum = 0
Injected packet rate average = 0.0745926
	minimum = 0.069 (at node 8)
	maximum = 0.0791667 (at node 1)
Accepted packet rate average = 0.0742407
	minimum = 0.0688333 (at node 0)
	maximum = 0.0788333 (at node 3)
Injected flit rate average = 0.0745926
	minimum = 0.069 (at node 8)
	maximum = 0.0791667 (at node 1)
Accepted flit rate average= 0.0742407
	minimum = 0.0688333 (at node 0)
	maximum = 0.0788333 (at node 3)
Injected packet length average = 1
Accepted packet length average = 1
Total in-flight flits = 19 (0 measured)
====== Peak Queue Occupancy Statistics (Absolute Max) ======
  Overall Max VC Occupancy = 1
  Overall Max Buffer Occupancy = 2
latency change    = 0.000953822
throughput change = 0.351958
Warmed up ...Time used is 6000 cycles
Class 0:
Packet latency average = 13.0536
	minimum = 11
	maximum = 19
	95th percentile = 17.5
	99th percentile = 18.5
Network latency average = 13.0536
	minimum = 11
	maximum = 19
	95th percentile = 17.5
	99th percentile = 18.5
Slowest packet = 4195
Flit latency average = 13.0545
	minimum = 11
	maximum = 19
	95th percentile = 17.5
	99th percentile = 18.5
Slowest flit = 4195
Fragmentation average = 0
	minimum = 0
	maximum = 0
Injected packet rate average = 0.148667
	minimum = 0.134333 (at node 1)
	maximum = 0.155 (at node 8)
Accepted packet rate average = 0.148704
	minimum = 0.134667 (at node 3)
	maximum = 0.154667 (at node 0)
Injected flit rate average = 0.148667
	minimum = 0.134333 (at node 1)
	maximum = 0.155 (at node 8)
Accepted flit rate average= 0.148704
	minimum = 0.134667 (at node 3)
	maximum = 0.154667 (at node 0)
Injected packet length average = 1
Accepted packet length average = 1
Total in-flight flits = 18 (18 measured)
====== Peak Queue Occupancy Statistics (Absolute Max) ======
  Overall Max VC Occupancy = 1
  Overall Max Buffer Occupancy = 2
latency change    = 0.00104518
throughput change = 0.500747
Class 0:
Packet latency average = 13.0677
	minimum = 11
	maximum = 19
	95th percentile = 17.5
	99th percentile = 18.5
Network latency average = 13.0677
	minimum = 11
	maximum = 19
	95th percentile = 17.5
	99th percentile = 18.5
Slowest packet = 4195
Flit latency average = 13.0681
	minimum = 11
	maximum = 19
	95th percentile = 17.5
	99th percentile = 18.5
Slowest flit = 4195
Fragmentation average = 0
	minimum = 0
	maximum = 0
Injected packet rate average = 0.173815
	minimum = 0.167667 (at node 1)
	maximum = 0.1795 (at node 2)
Accepted packet rate average = 0.173704
	minimum = 0.1675 (at node 3)
	maximum = 0.179167 (at node 6)
Injected flit rate average = 0.173815
	minimum = 0.167667 (at node 1)
	maximum = 0.1795 (at node 2)
Accepted flit rate average= 0.173704
	minimum = 0.1675 (at node 3)
	maximum = 0.179167 (at node 6)
Injected packet length average = 1
Accepted packet length average = 1
Total in-flight flits = 25 (25 measured)
====== Peak Queue Occupancy Statistics (Absolute Max) ======
  Overall Max VC Occupancy = 1
  Overall Max Buffer Occupancy = 2
latency change    = 0.00108468
throughput change = 0.143923
Class 0:
Packet latency average = 13.0732
	minimum = 11
	maximum = 20
	95th percentile = 17.5
	99th percentile = 18.5
Network latency average = 13.0732
	minimum = 11
	maximum = 20
	95th percentile = 17.5
	99th percentile = 18.5
Slowest packet = 13445
Flit latency average = 13.0735
	minimum = 11
	maximum = 20
	95th percentile = 17.5
	99th percentile = 18.5
Slowest flit = 13445
Fragmentation average = 0
	minimum = 0
	maximum = 0
Injected packet rate average = 0.198556
	minimum = 0.196 (at node 1)
	maximum = 0.205667 (at node 7)
Accepted packet rate average = 0.198321
	minimum = 0.195444 (at node 0)
	maximum = 0.205556 (at node 5)
Injected flit rate average = 0.198556
	minimum = 0.196 (at node 1)
	maximum = 0.205667 (at node 7)
Accepted flit rate average= 0.198321
	minimum = 0.195444 (at node 0)
	maximum = 0.205556 (at node 5)
Injected packet length average = 1
Accepted packet length average = 1
Total in-flight flits = 38 (38 measured)
====== Peak Queue Occupancy Statistics (Absolute Max) ======
  Overall Max VC Occupancy = 1
  Overall Max Buffer Occupancy = 2
latency change    = 0.000420992
throughput change = 0.124128
Class 0:
Packet latency average = 13.1011
	minimum = 11
	maximum = 21
	95th percentile = 17.5
	99th percentile = 18.5
Network latency average = 13.1011
	minimum = 11
	maximum = 21
	95th percentile = 17.5
	99th percentile = 18.5
Slowest packet = 21009
Flit latency average = 13.1013
	minimum = 11
	maximum = 21
	95th percentile = 17.5
	99th percentile = 18.5
Slowest flit = 21009
Fragmentation average = 0
	minimum = 0
	maximum = 0
Injected packet rate average = 0.225056
	minimum = 0.223083 (at node 6)
	maximum = 0.229167 (at node 7)
Accepted packet rate average = 0.224935
	minimum = 0.223083 (at node 2)
	maximum = 0.229 (at node 5)
Injected flit rate average = 0.225056
	minimum = 0.223083 (at node 6)
	maximum = 0.229167 (at node 7)
Accepted flit rate average= 0.224935
	minimum = 0.223083 (at node 2)
	maximum = 0.229 (at node 5)
Injected packet length average = 1
Accepted packet length average = 1
Total in-flight flits = 32 (32 measured)
====== Peak Queue Occupancy Statistics (Absolute Max) ======
  Overall Max VC Occupancy = 1
  Overall Max Buffer Occupancy = 2
latency change    = 0.00213
throughput change = 0.118319
Class 0:
Packet latency average = 13.1293
	minimum = 11
	maximum = 22
	95th percentile = 18.5
	99th percentile = 19.5
Network latency average = 13.1293
	minimum = 11
	maximum = 22
	95th percentile = 18.5
	99th percentile = 19.5
Slowest packet = 29716
Flit latency average = 13.1293
	minimum = 11
	maximum = 22
	95th percentile = 18.5
	99th percentile = 19.5
Slowest flit = 29716
Fragmentation average = 0
	minimum = 0
	maximum = 0
Injected packet rate average = 0.250067
	minimum = 0.244467 (at node 6)
	maximum = 0.255133 (at node 7)
Accepted packet rate average = 0.249874
	minimum = 0.244067 (at node 2)
	maximum = 0.255133 (at node 5)
Injected flit rate average = 0.250067
	minimum = 0.244467 (at node 6)
	maximum = 0.255133 (at node 7)
Accepted flit rate average= 0.249874
	minimum = 0.244067 (at node 2)
	maximum = 0.255133 (at node 5)
Injected packet length average = 1
Accepted packet length average = 1
Total in-flight flits = 45 (45 measured)
====== Peak Queue Occupancy Statistics (Absolute Max) ======
  Overall Max VC Occupancy = 1
  Overall Max Buffer Occupancy = 2
latency change    = 0.0021423
throughput change = 0.0998058
Class 0:
Packet latency average = 13.2104
	minimum = 11
	maximum = 25
	95th percentile = 18.5
	99th percentile = 19.5
Network latency average = 13.2104
	minimum = 11
	maximum = 25
	95th percentile = 18.5
	99th percentile = 19.5
Slowest packet = 39990
Flit latency average = 13.2104
	minimum = 11
	maximum = 25
	95th percentile = 18.5
	99th percentile = 19.5
Slowest flit = 39990
Fragmentation average = 0
	minimum = 0
	maximum = 0
Injected packet rate average = 0.275395
	minimum = 0.270167 (at node 6)
	maximum = 0.279444 (at node 7)
Accepted packet rate average = 0.275167
	minimum = 0.269889 (at node 2)
	maximum = 0.279167 (at node 5)
Injected flit rate average = 0.275395
	minimum = 0.270167 (at node 6)
	maximum = 0.279444 (at node 7)
Accepted flit rate average= 0.275167
	minimum = 0.269889 (at node 2)
	maximum = 0.279167 (at node 5)
Injected packet length average = 1
Accepted packet length average = 1
Total in-flight flits = 56 (56 measured)
====== Peak Queue Occupancy Statistics (Absolute Max) ======
  Overall Max VC Occupancy = 1
  Overall Max Buffer Occupancy = 2
latency change    = 0.00614015
throughput change = 0.0919174
Class 0:
Packet latency average = 13.4082
	minimum = 11
	maximum = 29
	95th percentile = 18.5
	99th percentile = 22.5
Network latency average = 13.4082
	minimum = 11
	maximum = 29
	95th percentile = 18.5
	99th percentile = 22.5
Slowest packet = 53839
Flit latency average = 13.4082
	minimum = 11
	maximum = 29
	95th percentile = 18.5
	99th percentile = 22.5
Slowest flit = 53839
Fragmentation average = 0
	minimum = 0
	maximum = 0
Injected packet rate average = 0.300259
	minimum = 0.298476 (at node 6)
	maximum = 0.303571 (at node 7)
Accepted packet rate average = 0.300058
	minimum = 0.298238 (at node 0)
	maximum = 0.303286 (at node 5)
Injected flit rate average = 0.300259
	minimum = 0.298476 (at node 6)
	maximum = 0.303571 (at node 7)
Accepted flit rate average= 0.300058
	minimum = 0.298238 (at node 0)
	maximum = 0.303286 (at node 5)
Injected packet length average = 1
Accepted packet length average = 1
Total in-flight flits = 57 (57 measured)
====== Peak Queue Occupancy Statistics (Absolute Max) ======
  Overall Max VC Occupancy = 1
  Overall Max Buffer Occupancy = 2
latency change    = 0.0147569
throughput change = 0.0829557
Class 0:
Packet latency average = 15.6338
	minimum = 11
	maximum = 123
	95th percentile = 32.5
	99th percentile = 70.5
Network latency average = 15.6338
	minimum = 11
	maximum = 123
	95th percentile = 32.5
	99th percentile = 70.5
Slowest packet = 69222
Flit latency average = 15.6332
	minimum = 11
	maximum = 123
	95th percentile = 32.5
	99th percentile = 70.5
Slowest flit = 69222
Fragmentation average = 0
	minimum = 0
	maximum = 0
Injected packet rate average = 0.325588
	minimum = 0.323292 (at node 5)
	maximum = 0.329667 (at node 2)
Accepted packet rate average = 0.325287
	minimum = 0.323 (at node 0)
	maximum = 0.328833 (at node 6)
Injected flit rate average = 0.325588
	minimum = 0.323292 (at node 5)
	maximum = 0.329667 (at node 2)
Accepted flit rate average= 0.325287
	minimum = 0.323 (at node 0)
	maximum = 0.328833 (at node 6)
Injected packet length average = 1
Accepted packet length average = 1
Total in-flight flits = 84 (84 measured)
====== Peak Queue Occupancy Statistics (Absolute Max) ======
  Overall Max VC Occupancy = 1
  Overall Max Buffer Occupancy = 22
latency change    = 0.142358
throughput change = 0.0775587
Class 0:
Packet latency average = 21.0556
	minimum = 11
	maximum = 570
	95th percentile = 76.5
	99th percentile = 128.5
Network latency average = 21.0421
	minimum = 11
	maximum = 570
	95th percentile = 76.5
	99th percentile = 128.5
Slowest packet = 86172
Flit latency average = 21.0403
	minimum = 11
	maximum = 570
	95th percentile = 76.5
	99th percentile = 128.5
Slowest flit = 86172
Fragmentation average = 0
	minimum = 0
	maximum = 0
Injected packet rate average = 0.350519
	minimum = 0.346963 (at node 8)
	maximum = 0.354889 (at node 2)
Accepted packet rate average = 0.349012
	minimum = 0.343593 (at node 0)
	maximum = 0.351778 (at node 6)
Injected flit rate average = 0.350519
	minimum = 0.346963 (at node 8)
	maximum = 0.354889 (at node 2)
Accepted flit rate average= 0.349012
	minimum = 0.343593 (at node 0)
	maximum = 0.351778 (at node 6)
Injected packet length average = 1
Accepted packet length average = 1
Total in-flight flits = 385 (385 measured)
====== Peak Queue Occupancy Statistics (Absolute Max) ======
  Overall Max VC Occupancy = 1
  Overall Max Buffer Occupancy = 48
latency change    = 0.257499
throughput change = 0.0679784
Class 0:
Packet latency average = 26.5353
	minimum = 11
	maximum = 749
	95th percentile = 96.5
	99th percentile = 204.5
Network latency average = 26.513
	minimum = 11
	maximum = 749
	95th percentile = 96.5
	99th percentile = 204.5
Slowest packet = 86475
Flit latency average = 26.5105
	minimum = 11
	maximum = 749
	95th percentile = 96.5
	99th percentile = 204.5
Slowest flit = 86475
Fragmentation average = 0
	minimum = 0
	maximum = 0
Injected packet rate average = 0.375337
	minimum = 0.372367 (at node 8)
	maximum = 0.379367 (at node 2)
Accepted packet rate average = 0.374444
	minimum = 0.370667 (at node 0)
	maximum = 0.3773 (at node 6)
Injected flit rate average = 0.375337
	minimum = 0.372367 (at node 8)
	maximum = 0.379367 (at node 2)
Accepted flit rate average= 0.374444
	minimum = 0.370667 (at node 0)
	maximum = 0.3773 (at node 6)
Injected packet length average = 1
Accepted packet length average = 1
Total in-flight flits = 260 (260 measured)
====== Peak Queue Occupancy Statistics (Absolute Max) ======
  Overall Max VC Occupancy = 1
  Overall Max Buffer Occupancy = 48
latency change    = 0.206506
throughput change = 0.0679196
Class 0:
Packet latency average = 30.2511
	minimum = 11
	maximum = 1053
	95th percentile = 105.5
	99th percentile = 252.5
Network latency average = 30.1417
	minimum = 11
	maximum = 1053
	95th percentile = 104.5
	99th percentile = 252.5
Slowest packet = 110892
Flit latency average = 30.1389
	minimum = 11
	maximum = 1053
	95th percentile = 104.5
	99th percentile = 252.5
Slowest flit = 110892
Fragmentation average = 0
	minimum = 0
	maximum = 0
Injected packet rate average = 0.395599
	minimum = 0.392636 (at node 8)
	maximum = 0.400333 (at node 2)
Accepted packet rate average = 0.394902
	minimum = 0.391636 (at node 3)
	maximum = 0.399303 (at node 6)
Injected flit rate average = 0.395599
	minimum = 0.392636 (at node 8)
	maximum = 0.400333 (at node 2)
Accepted flit rate average= 0.394902
	minimum = 0.391636 (at node 3)
	maximum = 0.399303 (at node 6)
Injected packet length average = 1
Accepted packet length average = 1
Total in-flight flits = 226 (226 measured)
====== Peak Queue Occupancy Statistics (Absolute Max) ======
  Overall Max VC Occupancy = 1
  Overall Max Buffer Occupancy = 48
latency change    = 0.122829
throughput change = 0.051805
Class 0:
Packet latency average = 33.758
	minimum = 11
	maximum = 1107
	95th percentile = 117.5
	99th percentile = 283.5
Network latency average = 33.4909
	minimum = 11
	maximum = 1107
	95th percentile = 115.5
	99th percentile = 281.5
Slowest packet = 124774
Flit latency average = 33.488
	minimum = 11
	maximum = 1107
	95th percentile = 115.5
	99th percentile = 281.5
Slowest flit = 124774
Fragmentation average = 0
	minimum = 0
	maximum = 0
Injected packet rate average = 0.412191
	minimum = 0.409667 (at node 6)
	maximum = 0.41675 (at node 2)
Accepted packet rate average = 0.411571
	minimum = 0.408639 (at node 2)
	maximum = 0.415583 (at node 6)
Injected flit rate average = 0.412191
	minimum = 0.409667 (at node 6)
	maximum = 0.41675 (at node 2)
Accepted flit rate average= 0.411571
	minimum = 0.408639 (at node 2)
	maximum = 0.415583 (at node 6)
Injected packet length average = 1
Accepted packet length average = 1
Total in-flight flits = 220 (220 measured)
====== Peak Queue Occupancy Statistics (Absolute Max) ======
  Overall Max VC Occupancy = 1
  Overall Max Buffer Occupancy = 48
latency change    = 0.103884
throughput change = 0.0405
Class 0:
Packet latency average = 35.612
	minimum = 11
	maximum = 1107
	95th percentile = 124.5
	99th percentile = 296.5
Network latency average = 35.3266
	minimum = 11
	maximum = 1107
	95th percentile = 122.5
	99th percentile = 293.5
Slowest packet = 124774
Flit latency average = 35.3238
	minimum = 11
	maximum = 1107
	95th percentile = 122.5
	99th percentile = 293.5
Slowest flit = 124774
Fragmentation average = 0
	minimum = 0
	maximum = 0
Injected packet rate average = 0.426604
	minimum = 0.424051 (at node 1)
	maximum = 0.431641 (at node 2)
Accepted packet rate average = 0.425838
	minimum = 0.422205 (at node 2)
	maximum = 0.430641 (at node 6)
Injected flit rate average = 0.426604
	minimum = 0.424051 (at node 1)
	maximum = 0.431641 (at node 2)
Accepted flit rate average= 0.425838
	minimum = 0.422205 (at node 2)
	maximum = 0.430641 (at node 6)
Injected packet length average = 1
Accepted packet length average = 1
Total in-flight flits = 288 (288 measured)
====== Peak Queue Occupancy Statistics (Absolute Max) ======
  Overall Max VC Occupancy = 1
  Overall Max Buffer Occupancy = 48
latency change    = 0.0520623
throughput change = 0.0335025
Class 0:
Packet latency average = 38.0836
	minimum = 11
	maximum = 1107
	95th percentile = 134.5
	99th percentile = 322.5
Network latency average = 37.7313
	minimum = 11
	maximum = 1107
	95th percentile = 130.5
	99th percentile = 321.5
Slowest packet = 124774
Flit latency average = 37.7285
	minimum = 11
	maximum = 1107
	95th percentile = 130.5
	99th percentile = 321.5
Slowest flit = 124774
Fragmentation average = 0
	minimum = 0
	maximum = 0
Injected packet rate average = 0.439045
	minimum = 0.436571 (at node 6)
	maximum = 0.443714 (at node 2)
Accepted packet rate average = 0.438201
	minimum = 0.43469 (at node 2)
	maximum = 0.442833 (at node 6)
Injected flit rate average = 0.439045
	minimum = 0.436571 (at node 6)
	maximum = 0.443714 (at node 2)
Accepted flit rate average= 0.438201
	minimum = 0.43469 (at node 2)
	maximum = 0.442833 (at node 6)
Injected packet length average = 1
Accepted packet length average = 1
Total in-flight flits = 338 (338 measured)
====== Peak Queue Occupancy Statistics (Absolute Max) ======
  Overall Max VC Occupancy = 1
  Overall Max Buffer Occupancy = 48
latency change    = 0.0648989
throughput change = 0.0282141
Class 0:
Packet latency average = 39.1974
	minimum = 11
	maximum = 1107
	95th percentile = 139.5
	99th percentile = 319.5
Network latency average = 38.8664
	minimum = 11
	maximum = 1107
	95th percentile = 135.5
	99th percentile = 318.5
Slowest packet = 124774
Flit latency average = 38.8637
	minimum = 11
	maximum = 1107
	95th percentile = 135.5
	99th percentile = 318.5
Slowest flit = 124774
Fragmentation average = 0
	minimum = 0
	maximum = 0
Injected packet rate average = 0.450151
	minimum = 0.447711 (at node 6)
	maximum = 0.454578 (at node 2)
Accepted packet rate average = 0.449558
	minimum = 0.446533 (at node 2)
	maximum = 0.453533 (at node 6)
Injected flit rate average = 0.450151
	minimum = 0.447711 (at node 6)
	maximum = 0.454578 (at node 2)
Accepted flit rate average= 0.449558
	minimum = 0.446533 (at node 2)
	maximum = 0.453533 (at node 6)
Injected packet length average = 1
Accepted packet length average = 1
Total in-flight flits = 259 (259 measured)
====== Peak Queue Occupancy Statistics (Absolute Max) ======
  Overall Max VC Occupancy = 1
  Overall Max Buffer Occupancy = 48
latency change    = 0.028416
throughput change = 0.0252625
Class 0:
Packet latency average = 40.7795
	minimum = 11
	maximum = 1323
	95th percentile = 146.5
	99th percentile = 327.5
Network latency average = 40.433
	minimum = 11
	maximum = 1323
	95th percentile = 143.5
	99th percentile = 325.5
Slowest packet = 187550
Flit latency average = 40.4304
	minimum = 11
	maximum = 1323
	95th percentile = 143.5
	99th percentile = 325.5
Slowest flit = 187550
Fragmentation average = 0
	minimum = 0
	maximum = 0
Injected packet rate average = 0.459847
	minimum = 0.457771 (at node 8)
	maximum = 0.463646 (at node 2)
Accepted packet rate average = 0.459384
	minimum = 0.457229 (at node 0)
	maximum = 0.463167 (at node 6)
Injected flit rate average = 0.459847
	minimum = 0.457771 (at node 8)
	maximum = 0.463646 (at node 2)
Accepted flit rate average= 0.459384
	minimum = 0.457229 (at node 0)
	maximum = 0.463167 (at node 6)
Injected packet length average = 1
Accepted packet length average = 1
Total in-flight flits = 219 (219 measured)
====== Peak Queue Occupancy Statistics (Absolute Max) ======
  Overall Max VC Occupancy = 1
  Overall Max Buffer Occupancy = 48
latency change    = 0.0387952
throughput change = 0.02139
Class 0:
Packet latency average = 41.6834
	minimum = 11
	maximum = 1323
	95th percentile = 150.5
	99th percentile = 328.5
Network latency average = 41.3272
	minimum = 11
	maximum = 1323
	95th percentile = 148.5
	99th percentile = 326.5
Slowest packet = 187550
Flit latency average = 41.3247
	minimum = 11
	maximum = 1323
	95th percentile = 148.5
	99th percentile = 326.5
Slowest flit = 187550
Fragmentation average = 0
	minimum = 0
	maximum = 0
Injected packet rate average = 0.468052
	minimum = 0.46602 (at node 6)
	maximum = 0.472471 (at node 2)
Accepted packet rate average = 0.467586
	minimum = 0.465118 (at node 2)
	maximum = 0.471765 (at node 6)
Injected flit rate average = 0.468052
	minimum = 0.46602 (at node 6)
	maximum = 0.472471 (at node 2)
Accepted flit rate average= 0.467586
	minimum = 0.465118 (at node 2)
	maximum = 0.471765 (at node 6)
Injected packet length average = 1
Accepted packet length average = 1
Total in-flight flits = 233 (233 measured)
====== Peak Queue Occupancy Statistics (Absolute Max) ======
  Overall Max VC Occupancy = 1
  Overall Max Buffer Occupancy = 48
latency change    = 0.0216854
throughput change = 0.0175407
Draining all recorded packets ...
Draining remaining packets ...
Time taken is 57350 cycles
====== Overall Traffic Statistics ======
====== Traffic class 0 ======
Packet latency average = 41.7301 (1 samples)
	minimum = 11 (1 samples)
	maximum = 1323 (1 samples)
Network latency average = 41.3743 (1 samples)
	minimum = 11 (1 samples)
	maximum = 1323 (1 samples)
Flit latency average = 41.4088 (1 samples)
	minimum = 11 (1 samples)
	maximum = 1323 (1 samples)
Fragmentation average = 0 (1 samples)
	minimum = 0 (1 samples)
	maximum = 0 (1 samples)
Injected packet rate average = 0.468052 (1 samples)
	minimum = 0.46602 (1 samples)
	maximum = 0.472471 (1 samples)
Accepted packet rate average = 0.467586 (1 samples)
	minimum = 0.465118 (1 samples)
	maximum = 0.471765 (1 samples)
Injected flit rate average = 0.468052 (1 samples)
	minimum = 0.46602 (1 samples)
	maximum = 0.472471 (1 samples)
Accepted flit rate average = 0.467586 (1 samples)
	minimum = 0.465118 (1 samples)
	maximum = 0.471765 (1 samples)
Injected packet size average = 1 (1 samples)
Accepted packet size average = 1 (1 samples)
Hops average = 3.76575 (1 samples)
Total run time 13.2403
====== Hybrid Routing Split Statistics ======
XY packets = 169882
Racke packets = 50123
XY fraction = 0.772173
Racke fraction = 0.227827
Flow (0 -> 4) alpha=0.166708 xy_packets=18183 racke_packets=6195 racke_fraction=0.254123
Flow (1 -> 3) alpha=0.167669 xy_packets=18182 racke_packets=6243 racke_fraction=0.255599
Flow (2 -> 6) alpha=0.167533 xy_packets=18374 racke_packets=6321 racke_fraction=0.255963
Flow (3 -> 1) alpha=0.166649 xy_packets=18773 racke_packets=5829 racke_fraction=0.236932
Flow (4 -> 8) alpha=0 xy_packets=19883 racke_packets=4481 racke_fraction=0.183919
Flow (5 -> 7) alpha=0 xy_packets=21129 racke_packets=3274 racke_fraction=0.134164
Flow (6 -> 2) alpha=0.0740382 xy_packets=18417 racke_packets=5936 racke_fraction=0.243748
Flow (7 -> 5) alpha=0.079453 xy_packets=18524 racke_packets=5945 racke_fraction=0.24296
Flow (8 -> 0) alpha=0.115378 xy_packets=18417 racke_packets=5899 racke_fraction=0.242597
====== Hybrid Routing Window Statistics ======
Window [0,3000) xy_packets=1304 racke_packets=0 xy_fraction=1
Window [3000,6000) xy_packets=2724 racke_packets=0 xy_fraction=1
Window [6000,9000) xy_packets=4014 racke_packets=0 xy_fraction=1
Window [9000,12000) xy_packets=5372 racke_packets=0 xy_fraction=1
Window [12000,15000) xy_packets=6697 racke_packets=0 xy_fraction=1
Window [15000,18000) xy_packets=8223 racke_packets=0 xy_fraction=1
Window [18000,21000) xy_packets=9453 racke_packets=0 xy_fraction=1
Window [21000,24000) xy_packets=10855 racke_packets=0 xy_fraction=1
Window [24000,27000) xy_packets=12135 racke_packets=0 xy_fraction=1
Window [27000,30000) xy_packets=13213 racke_packets=365 xy_fraction=0.973118
Window [30000,33000) xy_packets=13011 racke_packets=1838 xy_fraction=0.876221
Window [33000,36000) xy_packets=10061 racke_packets=6104 xy_fraction=0.622394
Window [36000,39000) xy_packets=10309 racke_packets=5843 xy_fraction=0.638249
Window [39000,42000) xy_packets=10681 racke_packets=5376 xy_fraction=0.665193
Window [42000,45000) xy_packets=10819 racke_packets=5369 xy_fraction=0.668335
Window [45000,48000) xy_packets=10318 racke_packets=5903 xy_fraction=0.636089
Window [48000,51000) xy_packets=9730 racke_packets=6622 xy_fraction=0.595034
Window [51000,54000) xy_packets=9841 racke_packets=6502 xy_fraction=0.602154
Window [54000,57000) xy_packets=10184 racke_packets=5998 xy_fraction=0.629341
Window [57000,60000) xy_packets=938 racke_packets=203 xy_fraction=0.822086

