BEGIN Configuration File: D:\noc_huawei\noc\booksim2-noc_speedup_study\booksim2-noc_speedup_study\tests\data\results\fixed_perm_growth_models_perm_4_3_6_1_8_7_2_5_0_peak_0p6_current_defaults\tmp_configs\linear_scale_dim_order_s2205.config
num_vcs     = 48;
vc_buf_size = 16;
wait_for_tail_credit = 1;

vc_allocator = islip;
sw_allocator = islip;
alloc_iters  = 16;

credit_delay   = 2;
routing_delay  = 0;
vc_alloc_delay = 1;
sw_alloc_delay = 1;
st_final_delay = 1;

input_speedup     = 1;
output_speedup    = 1;
internal_speedup  = 2.0;

sim_type = latency;
latency_thres  = 100000.0;
sim_count      = 1;
queue_sample_period_cycles = 0;

topology = mesh;
k  = 3;
n  = 2;

hybrid_transition_mode = linear_prob;
hybrid_xy_low_threshold = 0.35;
hybrid_racke_high_threshold = 0.65;
hybrid_buffer_soft_threshold = 0.50;
hybrid_buffer_hard_threshold = 0.85;
hybrid_buffer_release_threshold = 0.35;
hybrid_rate_soft_threshold = 0.55;
hybrid_rate_hard_threshold = 0.90;
hybrid_rate_weight = 0.25;
hybrid_congestion_alpha = 0.25;
hybrid_racke_increase_step = 0.25;
hybrid_racke_decrease_step = 0.10;
hybrid_epoch_cycles = 200;
hybrid_hold_cycles = 600;
hybrid_enable_midflight_override = 1;
hybrid_feedback_delay_per_hop = 1;
hybrid_flow_increase_step = 0.20;
hybrid_flow_decrease_step = 0.08;
hybrid_flow_hard_threshold = 0.95;

packet_size = 1;


ordered_injection_coefficients = {0.1666666667,0.3333333333,0.5};
ordered_injection_phase_cycles = {1000,1000,1000};
ordered_injection_source_order = {4,0,7,2,8,1,5,3,6};
ordered_injection_flow_peak_rate = 0.60;
warmup_periods = 2;
custom_perm_array = {4,3,6,1,8,7,2,5,0};
injection_process = scheduled;
injection_rate = 0.6;
scheduled_default_phase_cycles = 3000;
perm_seed = 2205;
hybrid_flow_hotspot_alpha = 0.85;
hybrid_stats_window_cycles = 3000;
hybrid_flow_hotspot_threshold = 1.1;
sample_period = 3000;
scheduled_injection_rates = {0.05,0.1,0.15,0.2,0.25,0.3,0.35,0.4,0.45,0.5,0.55,0.6,0.6,0.6};
traffic = custom_perm;
routing_function = dim_order;
scheduled_phase_cycles = {3000,3000,3000,3000,3000,3000,3000,3000,3000,3000,3000,3000,3000,3000};
seed = 2205;
max_samples = 22;

END Configuration File: D:\noc_huawei\noc\booksim2-noc_speedup_study\booksim2-noc_speedup_study\tests\data\results\fixed_perm_growth_models_perm_4_3_6_1_8_7_2_5_0_peak_0p6_current_defaults\tmp_configs\linear_scale_dim_order_s2205.config
Class 0:
Packet latency average = 12.9993
	minimum = 11
	maximum = 18
	95th percentile = 17.5
	99th percentile = 17.5
Network latency average = 12.9993
	minimum = 11
	maximum = 18
	95th percentile = 17.5
	99th percentile = 17.5
Slowest packet = 289
Flit latency average = 12.9993
	minimum = 11
	maximum = 18
	95th percentile = 17.5
	99th percentile = 17.5
Slowest flit = 289
Fragmentation average = 0
	minimum = 0
	maximum = 0
Injected packet rate average = 0.0508889
	minimum = 0.0463333 (at node 2)
	maximum = 0.0556667 (at node 6)
Accepted packet rate average = 0.0507037
	minimum = 0.046 (at node 6)
	maximum = 0.0553333 (at node 2)
Injected flit rate average = 0.0508889
	minimum = 0.0463333 (at node 2)
	maximum = 0.0556667 (at node 6)
Accepted flit rate average= 0.0507037
	minimum = 0.046 (at node 6)
	maximum = 0.0553333 (at node 2)
Injected packet length average = 1
Accepted packet length average = 1
Total in-flight flits = 5 (0 measured)
====== Peak Queue Occupancy Statistics (Absolute Max) ======
  Overall Max VC Occupancy = 1
  Overall Max Buffer Occupancy = 1
latency change    = 1
throughput change = 1
Class 0:
Packet latency average = 13.0118
	minimum = 11
	maximum = 18
	95th percentile = 17.5
	99th percentile = 18.5
Network latency average = 13.0118
	minimum = 11
	maximum = 18
	95th percentile = 17.5
	99th percentile = 18.5
Slowest packet = 289
Flit latency average = 13.0118
	minimum = 11
	maximum = 18
	95th percentile = 17.5
	99th percentile = 18.5
Slowest flit = 289
Fragmentation average = 0
	minimum = 0
	maximum = 0
Injected packet rate average = 0.0756296
	minimum = 0.073 (at node 2)
	maximum = 0.0803333 (at node 6)
Accepted packet rate average = 0.0753519
	minimum = 0.072 (at node 6)
	maximum = 0.08 (at node 2)
Injected flit rate average = 0.0756296
	minimum = 0.073 (at node 2)
	maximum = 0.0803333 (at node 6)
Accepted flit rate average= 0.0753519
	minimum = 0.072 (at node 6)
	maximum = 0.08 (at node 2)
Injected packet length average = 1
Accepted packet length average = 1
Total in-flight flits = 15 (0 measured)
====== Peak Queue Occupancy Statistics (Absolute Max) ======
  Overall Max VC Occupancy = 1
  Overall Max Buffer Occupancy = 2
latency change    = 0.000962739
throughput change = 0.327107
Warmed up ...Time used is 6000 cycles
Class 0:
Packet latency average = 13.0857
	minimum = 11
	maximum = 19
	95th percentile = 17.5
	99th percentile = 18.5
Network latency average = 13.0857
	minimum = 11
	maximum = 19
	95th percentile = 17.5
	99th percentile = 18.5
Slowest packet = 5365
Flit latency average = 13.0898
	minimum = 11
	maximum = 19
	95th percentile = 17.5
	99th percentile = 18.5
Slowest flit = 5365
Fragmentation average = 0
	minimum = 0
	maximum = 0
Injected packet rate average = 0.150852
	minimum = 0.142333 (at node 0)
	maximum = 0.163667 (at node 6)
Accepted packet rate average = 0.150593
	minimum = 0.142 (at node 4)
	maximum = 0.163 (at node 2)
Injected flit rate average = 0.150852
	minimum = 0.142333 (at node 0)
	maximum = 0.163667 (at node 6)
Accepted flit rate average= 0.150593
	minimum = 0.142 (at node 4)
	maximum = 0.163 (at node 2)
Injected packet length average = 1
Accepted packet length average = 1
Total in-flight flits = 22 (22 measured)
====== Peak Queue Occupancy Statistics (Absolute Max) ======
  Overall Max VC Occupancy = 1
  Overall Max Buffer Occupancy = 2
latency change    = 0.00564445
throughput change = 0.499631
Class 0:
Packet latency average = 13.0567
	minimum = 11
	maximum = 19
	95th percentile = 17.5
	99th percentile = 18.5
Network latency average = 13.0567
	minimum = 11
	maximum = 19
	95th percentile = 17.5
	99th percentile = 18.5
Slowest packet = 5365
Flit latency average = 13.0586
	minimum = 11
	maximum = 19
	95th percentile = 17.5
	99th percentile = 18.5
Slowest flit = 5365
Fragmentation average = 0
	minimum = 0
	maximum = 0
Injected packet rate average = 0.174056
	minimum = 0.1665 (at node 4)
	maximum = 0.188833 (at node 5)
Accepted packet rate average = 0.173889
	minimum = 0.166333 (at node 8)
	maximum = 0.1885 (at node 7)
Injected flit rate average = 0.174056
	minimum = 0.1665 (at node 4)
	maximum = 0.188833 (at node 5)
Accepted flit rate average= 0.173889
	minimum = 0.166333 (at node 8)
	maximum = 0.1885 (at node 7)
Injected packet length average = 1
Accepted packet length average = 1
Total in-flight flits = 24 (24 measured)
====== Peak Queue Occupancy Statistics (Absolute Max) ======
  Overall Max VC Occupancy = 1
  Overall Max Buffer Occupancy = 2
latency change    = 0.00221427
throughput change = 0.133972
Class 0:
Packet latency average = 13.0854
	minimum = 11
	maximum = 20
	95th percentile = 17.5
	99th percentile = 18.5
Network latency average = 13.0854
	minimum = 11
	maximum = 20
	95th percentile = 17.5
	99th percentile = 18.5
Slowest packet = 17190
Flit latency average = 13.0864
	minimum = 11
	maximum = 20
	95th percentile = 17.5
	99th percentile = 18.5
Slowest flit = 17190
Fragmentation average = 0
	minimum = 0
	maximum = 0
Injected packet rate average = 0.197951
	minimum = 0.193222 (at node 3)
	maximum = 0.204 (at node 5)
Accepted packet rate average = 0.197765
	minimum = 0.193111 (at node 1)
	maximum = 0.203889 (at node 7)
Injected flit rate average = 0.197951
	minimum = 0.193222 (at node 3)
	maximum = 0.204 (at node 5)
Accepted flit rate average= 0.197765
	minimum = 0.193111 (at node 1)
	maximum = 0.203889 (at node 7)
Injected packet length average = 1
Accepted packet length average = 1
Total in-flight flits = 30 (30 measured)
====== Peak Queue Occupancy Statistics (Absolute Max) ======
  Overall Max VC Occupancy = 1
  Overall Max Buffer Occupancy = 2
latency change    = 0.00218618
throughput change = 0.120732
Class 0:
Packet latency average = 13.1125
	minimum = 11
	maximum = 21
	95th percentile = 17.5
	99th percentile = 18.5
Network latency average = 13.1125
	minimum = 11
	maximum = 21
	95th percentile = 17.5
	99th percentile = 18.5
Slowest packet = 21842
Flit latency average = 13.1131
	minimum = 11
	maximum = 21
	95th percentile = 17.5
	99th percentile = 18.5
Slowest flit = 21842
Fragmentation average = 0
	minimum = 0
	maximum = 0
Injected packet rate average = 0.22413
	minimum = 0.217 (at node 3)
	maximum = 0.228083 (at node 1)
Accepted packet rate average = 0.223981
	minimum = 0.216583 (at node 1)
	maximum = 0.227833 (at node 3)
Injected flit rate average = 0.22413
	minimum = 0.217 (at node 3)
	maximum = 0.228083 (at node 1)
Accepted flit rate average= 0.223981
	minimum = 0.216583 (at node 1)
	maximum = 0.227833 (at node 3)
Injected packet length average = 1
Accepted packet length average = 1
Total in-flight flits = 31 (31 measured)
====== Peak Queue Occupancy Statistics (Absolute Max) ======
  Overall Max VC Occupancy = 1
  Overall Max Buffer Occupancy = 2
latency change    = 0.0020681
throughput change = 0.117046
Class 0:
Packet latency average = 13.1639
	minimum = 11
	maximum = 24
	95th percentile = 18.5
	99th percentile = 19.5
Network latency average = 13.1639
	minimum = 11
	maximum = 24
	95th percentile = 18.5
	99th percentile = 19.5
Slowest packet = 37125
Flit latency average = 13.1644
	minimum = 11
	maximum = 24
	95th percentile = 18.5
	99th percentile = 19.5
Slowest flit = 37125
Fragmentation average = 0
	minimum = 0
	maximum = 0
Injected packet rate average = 0.249719
	minimum = 0.243733 (at node 3)
	maximum = 0.2546 (at node 6)
Accepted packet rate average = 0.249533
	minimum = 0.243667 (at node 1)
	maximum = 0.254133 (at node 2)
Injected flit rate average = 0.249719
	minimum = 0.243733 (at node 3)
	maximum = 0.2546 (at node 6)
Accepted flit rate average= 0.249533
	minimum = 0.243667 (at node 1)
	maximum = 0.254133 (at node 2)
Injected packet length average = 1
Accepted packet length average = 1
Total in-flight flits = 40 (40 measured)
====== Peak Queue Occupancy Statistics (Absolute Max) ======
  Overall Max VC Occupancy = 1
  Overall Max Buffer Occupancy = 2
latency change    = 0.00390938
throughput change = 0.102399
Class 0:
Packet latency average = 13.2314
	minimum = 11
	maximum = 24
	95th percentile = 18.5
	99th percentile = 19.5
Network latency average = 13.2314
	minimum = 11
	maximum = 24
	95th percentile = 18.5
	99th percentile = 19.5
Slowest packet = 37125
Flit latency average = 13.2317
	minimum = 11
	maximum = 24
	95th percentile = 18.5
	99th percentile = 19.5
Slowest flit = 37125
Fragmentation average = 0
	minimum = 0
	maximum = 0
Injected packet rate average = 0.274809
	minimum = 0.269556 (at node 7)
	maximum = 0.280944 (at node 6)
Accepted packet rate average = 0.274636
	minimum = 0.269333 (at node 5)
	maximum = 0.280611 (at node 2)
Injected flit rate average = 0.274809
	minimum = 0.269556 (at node 7)
	maximum = 0.280944 (at node 6)
Accepted flit rate average= 0.274636
	minimum = 0.269333 (at node 5)
	maximum = 0.280611 (at node 2)
Injected packet length average = 1
Accepted packet length average = 1
Total in-flight flits = 43 (43 measured)
====== Peak Queue Occupancy Statistics (Absolute Max) ======
  Overall Max VC Occupancy = 1
  Overall Max Buffer Occupancy = 2
latency change    = 0.00509933
throughput change = 0.0914028
Class 0:
Packet latency average = 13.409
	minimum = 11
	maximum = 32
	95th percentile = 18.5
	99th percentile = 21.5
Network latency average = 13.409
	minimum = 11
	maximum = 32
	95th percentile = 18.5
	99th percentile = 21.5
Slowest packet = 51664
Flit latency average = 13.4092
	minimum = 11
	maximum = 32
	95th percentile = 18.5
	99th percentile = 21.5
Slowest flit = 51664
Fragmentation average = 0
	minimum = 0
	maximum = 0
Injected packet rate average = 0.300418
	minimum = 0.295095 (at node 7)
	maximum = 0.305714 (at node 6)
Accepted packet rate average = 0.300185
	minimum = 0.294952 (at node 5)
	maximum = 0.305429 (at node 2)
Injected flit rate average = 0.300418
	minimum = 0.295095 (at node 7)
	maximum = 0.305714 (at node 6)
Accepted flit rate average= 0.300185
	minimum = 0.294952 (at node 5)
	maximum = 0.305429 (at node 2)
Injected packet length average = 1
Accepted packet length average = 1
Total in-flight flits = 59 (59 measured)
====== Peak Queue Occupancy Statistics (Absolute Max) ======
  Overall Max VC Occupancy = 1
  Overall Max Buffer Occupancy = 2
latency change    = 0.0132425
throughput change = 0.0851121
Class 0:
Packet latency average = 14.8645
	minimum = 11
	maximum = 114
	95th percentile = 23.5
	99th percentile = 59.5
Network latency average = 14.8645
	minimum = 11
	maximum = 114
	95th percentile = 23.5
	99th percentile = 59.5
Slowest packet = 72252
Flit latency average = 14.8644
	minimum = 11
	maximum = 114
	95th percentile = 23.5
	99th percentile = 59.5
Slowest flit = 72252
Fragmentation average = 0
	minimum = 0
	maximum = 0
Injected packet rate average = 0.325537
	minimum = 0.3215 (at node 3)
	maximum = 0.329917 (at node 6)
Accepted packet rate average = 0.325
	minimum = 0.320833 (at node 5)
	maximum = 0.328792 (at node 2)
Injected flit rate average = 0.325537
	minimum = 0.3215 (at node 3)
	maximum = 0.329917 (at node 6)
Accepted flit rate average= 0.325
	minimum = 0.320833 (at node 5)
	maximum = 0.328792 (at node 2)
Injected packet length average = 1
Accepted packet length average = 1
Total in-flight flits = 131 (131 measured)
====== Peak Queue Occupancy Statistics (Absolute Max) ======
  Overall Max VC Occupancy = 1
  Overall Max Buffer Occupancy = 29
latency change    = 0.0979223
throughput change = 0.0763533
Class 0:
Packet latency average = 25.9418
	minimum = 11
	maximum = 1289
	95th percentile = 77.5
	99th percentile = 348.5
Network latency average = 22.4201
	minimum = 11
	maximum = 1261
	95th percentile = 70.5
	99th percentile = 187.5
Slowest packet = 80423
Flit latency average = 22.4186
	minimum = 11
	maximum = 1261
	95th percentile = 70.5
	99th percentile = 187.5
Slowest flit = 80423
Fragmentation average = 0
	minimum = 0
	maximum = 0
Injected packet rate average = 0.348313
	minimum = 0.343259 (at node 1)
	maximum = 0.35163 (at node 2)
Accepted packet rate average = 0.346914
	minimum = 0.340481 (at node 3)
	maximum = 0.351074 (at node 4)
Injected flit rate average = 0.348313
	minimum = 0.343259 (at node 1)
	maximum = 0.35163 (at node 2)
Accepted flit rate average= 0.346914
	minimum = 0.340481 (at node 3)
	maximum = 0.351074 (at node 4)
Injected packet length average = 1
Accepted packet length average = 1
Total in-flight flits = 356 (356 measured)
====== Peak Queue Occupancy Statistics (Absolute Max) ======
  Overall Max VC Occupancy = 1
  Overall Max Buffer Occupancy = 48
latency change    = 0.427004
throughput change = 0.0631673
Class 0:
Packet latency average = 56.0332
	minimum = 11
	maximum = 2088
	95th percentile = 327.5
	99th percentile = 926.5
Network latency average = 31.552
	minimum = 11
	maximum = 1673
	95th percentile = 102.5
	99th percentile = 373.5
Slowest packet = 83739
Flit latency average = 31.5494
	minimum = 11
	maximum = 1673
	95th percentile = 102.5
	99th percentile = 373.5
Slowest flit = 92964
Fragmentation average = 0
	minimum = 0
	maximum = 0
Injected packet rate average = 0.36937
	minimum = 0.357167 (at node 2)
	maximum = 0.376933 (at node 0)
Accepted packet rate average = 0.367878
	minimum = 0.353133 (at node 6)
	maximum = 0.3767 (at node 4)
Injected flit rate average = 0.36937
	minimum = 0.357167 (at node 2)
	maximum = 0.376933 (at node 0)
Accepted flit rate average= 0.367878
	minimum = 0.353133 (at node 6)
	maximum = 0.3767 (at node 4)
Injected packet length average = 1
Accepted packet length average = 1
Total in-flight flits = 421 (421 measured)
====== Peak Queue Occupancy Statistics (Absolute Max) ======
  Overall Max VC Occupancy = 1
  Overall Max Buffer Occupancy = 48
latency change    = 0.537028
throughput change = 0.0569869
Class 0:
Packet latency average = 105.435
	minimum = 11
	maximum = 2503
	95th percentile = 904.5
	99th percentile = 999.5
Network latency average = 38.3407
	minimum = 11
	maximum = 1719
	95th percentile = 145.5
	99th percentile = 475.5
Slowest packet = 83739
Flit latency average = 38.3375
	minimum = 11
	maximum = 1719
	95th percentile = 145.5
	99th percentile = 475.5
Slowest flit = 106653
Fragmentation average = 0
	minimum = 0
	maximum = 0
Injected packet rate average = 0.386182
	minimum = 0.372091 (at node 2)
	maximum = 0.396727 (at node 5)
Accepted packet rate average = 0.384801
	minimum = 0.369152 (at node 6)
	maximum = 0.396606 (at node 7)
Injected flit rate average = 0.386182
	minimum = 0.372091 (at node 2)
	maximum = 0.396727 (at node 5)
Accepted flit rate average= 0.384801
	minimum = 0.369152 (at node 6)
	maximum = 0.396606 (at node 7)
Injected packet length average = 1
Accepted packet length average = 1
Total in-flight flits = 427 (427 measured)
====== Peak Queue Occupancy Statistics (Absolute Max) ======
  Overall Max VC Occupancy = 1
  Overall Max Buffer Occupancy = 48
latency change    = 0.468551
throughput change = 0.04398
Class 0:
Packet latency average = 166.715
	minimum = 11
	maximum = 3173
	95th percentile = 999.5
	99th percentile = 999.5
Network latency average = 43.6302
	minimum = 11
	maximum = 1865
	95th percentile = 186.5
	99th percentile = 575.5
Slowest packet = 83739
Flit latency average = 43.6268
	minimum = 11
	maximum = 1865
	95th percentile = 186.5
	99th percentile = 575.5
Slowest flit = 115999
Fragmentation average = 0
	minimum = 0
	maximum = 0
Injected packet rate average = 0.400608
	minimum = 0.382222 (at node 7)
	maximum = 0.413694 (at node 5)
Accepted packet rate average = 0.399358
	minimum = 0.380083 (at node 5)
	maximum = 0.413528 (at node 7)
Injected flit rate average = 0.400608
	minimum = 0.382222 (at node 7)
	maximum = 0.413694 (at node 5)
Accepted flit rate average= 0.399358
	minimum = 0.380083 (at node 5)
	maximum = 0.413528 (at node 7)
Injected packet length average = 1
Accepted packet length average = 1
Total in-flight flits = 422 (422 measured)
====== Peak Queue Occupancy Statistics (Absolute Max) ======
  Overall Max VC Occupancy = 1
  Overall Max Buffer Occupancy = 48
latency change    = 0.367576
throughput change = 0.0364502
Class 0:
Packet latency average = 235.329
	minimum = 11
	maximum = 3634
	95th percentile = 999.5
	99th percentile = 999.5
Network latency average = 47.8704
	minimum = 11
	maximum = 1865
	95th percentile = 193.5
	99th percentile = 575.5
Slowest packet = 83739
Flit latency average = 47.8669
	minimum = 11
	maximum = 1865
	95th percentile = 193.5
	99th percentile = 575.5
Slowest flit = 115999
Fragmentation average = 0
	minimum = 0
	maximum = 0
Injected packet rate average = 0.412433
	minimum = 0.389462 (at node 2)
	maximum = 0.427513 (at node 5)
Accepted packet rate average = 0.411288
	minimum = 0.386436 (at node 6)
	maximum = 0.42741 (at node 7)
Injected flit rate average = 0.412433
	minimum = 0.389462 (at node 2)
	maximum = 0.427513 (at node 5)
Accepted flit rate average= 0.411288
	minimum = 0.386436 (at node 6)
	maximum = 0.42741 (at node 7)
Injected packet length average = 1
Accepted packet length average = 1
Total in-flight flits = 419 (419 measured)
====== Peak Queue Occupancy Statistics (Absolute Max) ======
  Overall Max VC Occupancy = 1
  Overall Max Buffer Occupancy = 48
latency change    = 0.291565
throughput change = 0.0290058
Class 0:
Packet latency average = 310.889
	minimum = 11
	maximum = 4083
	95th percentile = 999.5
	99th percentile = 999.5
Network latency average = 51.1978
	minimum = 11
	maximum = 1865
	95th percentile = 214.5
	99th percentile = 579.5
Slowest packet = 83739
Flit latency average = 51.1943
	minimum = 11
	maximum = 1865
	95th percentile = 214.5
	99th percentile = 579.5
Slowest flit = 115999
Fragmentation average = 0
	minimum = 0
	maximum = 0
Injected packet rate average = 0.422714
	minimum = 0.400405 (at node 6)
	maximum = 0.440048 (at node 8)
Accepted packet rate average = 0.421643
	minimum = 0.397595 (at node 2)
	maximum = 0.439833 (at node 4)
Injected flit rate average = 0.422714
	minimum = 0.400405 (at node 6)
	maximum = 0.440048 (at node 8)
Accepted flit rate average= 0.421643
	minimum = 0.397595 (at node 2)
	maximum = 0.439833 (at node 4)
Injected packet length average = 1
Accepted packet length average = 1
Total in-flight flits = 421 (421 measured)
====== Peak Queue Occupancy Statistics (Absolute Max) ======
  Overall Max VC Occupancy = 1
  Overall Max Buffer Occupancy = 48
latency change    = 0.243046
throughput change = 0.024559
Class 0:
Packet latency average = 391.286
	minimum = 11
	maximum = 4850
	95th percentile = 999.5
	99th percentile = 999.5
Network latency average = 54.0761
	minimum = 11
	maximum = 1865
	95th percentile = 232.5
	99th percentile = 595.5
Slowest packet = 83739
Flit latency average = 54.0727
	minimum = 11
	maximum = 1865
	95th percentile = 232.5
	99th percentile = 595.5
Slowest flit = 115999
Fragmentation average = 0
	minimum = 0
	maximum = 0
Injected packet rate average = 0.431449
	minimum = 0.405178 (at node 7)
	maximum = 0.4506 (at node 5)
Accepted packet rate average = 0.430444
	minimum = 0.403511 (at node 5)
	maximum = 0.450489 (at node 7)
Injected flit rate average = 0.431449
	minimum = 0.405178 (at node 7)
	maximum = 0.4506 (at node 5)
Accepted flit rate average= 0.430444
	minimum = 0.403511 (at node 5)
	maximum = 0.450489 (at node 7)
Injected packet length average = 1
Accepted packet length average = 1
Total in-flight flits = 424 (424 measured)
====== Peak Queue Occupancy Statistics (Absolute Max) ======
  Overall Max VC Occupancy = 1
  Overall Max Buffer Occupancy = 48
latency change    = 0.205469
throughput change = 0.0204477
Class 0:
Packet latency average = 473.049
	minimum = 11
	maximum = 4987
	95th percentile = 999.5
	99th percentile = 999.5
Network latency average = 56.437
	minimum = 11
	maximum = 1865
	95th percentile = 237.5
	99th percentile = 613.5
Slowest packet = 83739
Flit latency average = 56.4337
	minimum = 11
	maximum = 1865
	95th percentile = 237.5
	99th percentile = 613.5
Slowest flit = 115999
Fragmentation average = 0
	minimum = 0
	maximum = 0
Injected packet rate average = 0.439287
	minimum = 0.409854 (at node 2)
	maximum = 0.460813 (at node 8)
Accepted packet rate average = 0.438368
	minimum = 0.407375 (at node 6)
	maximum = 0.460604 (at node 0)
Injected flit rate average = 0.439287
	minimum = 0.409854 (at node 2)
	maximum = 0.460813 (at node 8)
Accepted flit rate average= 0.438368
	minimum = 0.407375 (at node 6)
	maximum = 0.460604 (at node 0)
Injected packet length average = 1
Accepted packet length average = 1
Total in-flight flits = 415 (415 measured)
====== Peak Queue Occupancy Statistics (Absolute Max) ======
  Overall Max VC Occupancy = 1
  Overall Max Buffer Occupancy = 48
latency change    = 0.172842
throughput change = 0.0180752
Class 0:
Packet latency average = 558.464
	minimum = 11
	maximum = 5557
	95th percentile = 999.5
	99th percentile = 999.5
Network latency average = 58.3882
	minimum = 11
	maximum = 1865
	95th percentile = 239.5
	99th percentile = 619.5
Slowest packet = 83739
Flit latency average = 58.385
	minimum = 11
	maximum = 1865
	95th percentile = 239.5
	99th percentile = 619.5
Slowest flit = 115999
Fragmentation average = 0
	minimum = 0
	maximum = 0
Injected packet rate average = 0.446318
	minimum = 0.417804 (at node 6)
	maximum = 0.469549 (at node 8)
Accepted packet rate average = 0.44544
	minimum = 0.415569 (at node 2)
	maximum = 0.469373 (at node 0)
Injected flit rate average = 0.446318
	minimum = 0.417804 (at node 6)
	maximum = 0.469549 (at node 8)
Accepted flit rate average= 0.44544
	minimum = 0.415569 (at node 2)
	maximum = 0.469373 (at node 0)
Injected packet length average = 1
Accepted packet length average = 1
Total in-flight flits = 420 (420 measured)
====== Peak Queue Occupancy Statistics (Absolute Max) ======
  Overall Max VC Occupancy = 1
  Overall Max Buffer Occupancy = 48
latency change    = 0.152945
throughput change = 0.0158765
Class 0:
Packet latency average = 646.058
	minimum = 11
	maximum = 6326
	95th percentile = 999.5
	99th percentile = 999.5
Network latency average = 60.1812
	minimum = 11
	maximum = 1865
	95th percentile = 239.5
	99th percentile = 623.5
Slowest packet = 83739
Flit latency average = 60.1781
	minimum = 11
	maximum = 1865
	95th percentile = 239.5
	99th percentile = 623.5
Slowest flit = 115999
Fragmentation average = 0
	minimum = 0
	maximum = 0
Injected packet rate average = 0.452389
	minimum = 0.420704 (at node 7)
	maximum = 0.476426 (at node 8)
Accepted packet rate average = 0.451556
	minimum = 0.419389 (at node 5)
	maximum = 0.476241 (at node 0)
Injected flit rate average = 0.452389
	minimum = 0.420704 (at node 7)
	maximum = 0.476426 (at node 8)
Accepted flit rate average= 0.451556
	minimum = 0.419389 (at node 5)
	maximum = 0.476241 (at node 0)
Injected packet length average = 1
Accepted packet length average = 1
Total in-flight flits = 422 (422 measured)
====== Peak Queue Occupancy Statistics (Absolute Max) ======
  Overall Max VC Occupancy = 1
  Overall Max Buffer Occupancy = 48
latency change    = 0.135583
throughput change = 0.0135431
Class 0:
Packet latency average = 734.436
	minimum = 11
	maximum = 6369
	95th percentile = 999.5
	99th percentile = 999.5
Network latency average = 61.6812
	minimum = 11
	maximum = 1865
	95th percentile = 245.5
	99th percentile = 623.5
Slowest packet = 83739
Flit latency average = 61.6781
	minimum = 11
	maximum = 1865
	95th percentile = 245.5
	99th percentile = 623.5
Slowest flit = 115999
Fragmentation average = 0
	minimum = 0
	maximum = 0
Injected packet rate average = 0.45785
	minimum = 0.423649 (at node 2)
	maximum = 0.482789 (at node 8)
Accepted packet rate average = 0.457078
	minimum = 0.421596 (at node 6)
	maximum = 0.482667 (at node 0)
Injected flit rate average = 0.45785
	minimum = 0.423649 (at node 2)
	maximum = 0.482789 (at node 8)
Accepted flit rate average= 0.457078
	minimum = 0.421596 (at node 6)
	maximum = 0.482667 (at node 0)
Injected packet length average = 1
Accepted packet length average = 1
Total in-flight flits = 413 (413 measured)
====== Peak Queue Occupancy Statistics (Absolute Max) ======
  Overall Max VC Occupancy = 1
  Overall Max Buffer Occupancy = 48
latency change    = 0.120334
throughput change = 0.012082
Class 0:
Packet latency average = 826.107
	minimum = 11
	maximum = 6982
	95th percentile = 999.5
	99th percentile = 999.5
Network latency average = 62.9865
	minimum = 11
	maximum = 1865
	95th percentile = 249.5
	99th percentile = 623.5
Slowest packet = 83739
Flit latency average = 62.9836
	minimum = 11
	maximum = 1865
	95th percentile = 249.5
	99th percentile = 623.5
Slowest flit = 115999
Fragmentation average = 0
	minimum = 0
	maximum = 0
Injected packet rate average = 0.462781
	minimum = 0.430717 (at node 6)
	maximum = 0.4892 (at node 8)
Accepted packet rate average = 0.46202
	minimum = 0.4289 (at node 2)
	maximum = 0.489 (at node 0)
Injected flit rate average = 0.462781
	minimum = 0.430717 (at node 6)
	maximum = 0.4892 (at node 8)
Accepted flit rate average= 0.46202
	minimum = 0.4289 (at node 2)
	maximum = 0.489 (at node 0)
Injected packet length average = 1
Accepted packet length average = 1
Total in-flight flits = 427 (427 measured)
====== Peak Queue Occupancy Statistics (Absolute Max) ======
  Overall Max VC Occupancy = 1
  Overall Max Buffer Occupancy = 48
latency change    = 0.110968
throughput change = 0.0106974
Draining all recorded packets ...
Class 0:
Remaining flits: 251405 251857 252802 253055 253260 253415 253743 253975 253999 254015 [...] (425 flits)
Measured flits: 251405 251857 252802 253055 253260 253415 253743 253975 253999 254015 [...] (385 flits)
Class 0:
Remaining flits: 255412 255604 255869 256310 256342 259120 259332 259419 259573 259890 [...] (424 flits)
Measured flits: 255412 255604 255869 256310 256342 259120 259332 259419 259573 259890 [...] (384 flits)
Class 0:
Remaining flits: 263083 263402 263641 263884 264125 264351 264591 264824 264999 265067 [...] (421 flits)
Measured flits: 263083 263402 263641 263884 264125 264351 264591 264824 264999 265067 [...] (384 flits)
Class 0:
Remaining flits: 268008 268233 268458 268687 268911 269152 269582 269708 269810 269927 [...] (420 flits)
Measured flits: 268008 268233 268458 268687 268911 269152 269582 269708 269810 269927 [...] (386 flits)
Class 0:
Remaining flits: 273208 273458 273697 273783 273936 274179 274260 274325 274424 274649 [...] (420 flits)
Measured flits: 273208 273458 273697 273783 273936 274179 274260 274325 274424 274649 [...] (385 flits)
Class 0:
Remaining flits: 276621 276842 277510 277517 277826 278020 278024 278069 278274 278477 [...] (422 flits)
Measured flits: 276621 276842 277510 277517 277826 278020 278024 278069 278274 278477 [...] (386 flits)
Class 0:
Remaining flits: 282431 282757 282906 283418 283478 283705 284140 284194 284411 284546 [...] (414 flits)
Measured flits: 282431 282757 282906 283418 283478 283705 284140 284194 284411 284546 [...] (175 flits)
Draining remaining packets ...
Time taken is 73984 cycles
====== Overall Traffic Statistics ======
====== Traffic class 0 ======
Packet latency average = 1126.86 (1 samples)
	minimum = 11 (1 samples)
	maximum = 8621 (1 samples)
Network latency average = 70.0432 (1 samples)
	minimum = 11 (1 samples)
	maximum = 2006 (1 samples)
Flit latency average = 66.1658 (1 samples)
	minimum = 11 (1 samples)
	maximum = 2006 (1 samples)
Fragmentation average = 0 (1 samples)
	minimum = 0 (1 samples)
	maximum = 0 (1 samples)
Injected packet rate average = 0.462781 (1 samples)
	minimum = 0.430717 (1 samples)
	maximum = 0.4892 (1 samples)
Accepted packet rate average = 0.46202 (1 samples)
	minimum = 0.4289 (1 samples)
	maximum = 0.489 (1 samples)
Injected flit rate average = 0.462781 (1 samples)
	minimum = 0.430717 (1 samples)
	maximum = 0.4892 (1 samples)
Accepted flit rate average = 0.46202 (1 samples)
	minimum = 0.4289 (1 samples)
	maximum = 0.489 (1 samples)
Injected packet size average = 1 (1 samples)
Accepted packet size average = 1 (1 samples)
Hops average = 3.66954 (1 samples)
Total run time 26.4801

