BEGIN Configuration File: D:\noc_huawei\noc\booksim2-noc_speedup_study\booksim2-noc_speedup_study\tests\data\results\fixed_perm_growth_models_perm_4_3_6_1_8_7_2_5_0_peak_0p6_current_defaults\tmp_configs\linear_scale_racke_tree_s2204.config
num_vcs     = 48;
vc_buf_size = 16;
wait_for_tail_credit = 1;

vc_allocator = islip;
sw_allocator = islip;
alloc_iters  = 16;

credit_delay   = 2;
routing_delay  = 0;
vc_alloc_delay = 1;
sw_alloc_delay = 1;
st_final_delay = 1;

input_speedup     = 1;
output_speedup    = 1;
internal_speedup  = 2.0;

sim_type = latency;
latency_thres  = 100000.0;
sim_count      = 1;
queue_sample_period_cycles = 0;

topology = mesh;
k  = 3;
n  = 2;

hybrid_transition_mode = linear_prob;
hybrid_xy_low_threshold = 0.35;
hybrid_racke_high_threshold = 0.65;
hybrid_buffer_soft_threshold = 0.50;
hybrid_buffer_hard_threshold = 0.85;
hybrid_buffer_release_threshold = 0.35;
hybrid_rate_soft_threshold = 0.55;
hybrid_rate_hard_threshold = 0.90;
hybrid_rate_weight = 0.25;
hybrid_congestion_alpha = 0.25;
hybrid_racke_increase_step = 0.25;
hybrid_racke_decrease_step = 0.10;
hybrid_epoch_cycles = 200;
hybrid_hold_cycles = 600;
hybrid_enable_midflight_override = 1;
hybrid_feedback_delay_per_hop = 1;
hybrid_flow_increase_step = 0.20;
hybrid_flow_decrease_step = 0.08;
hybrid_flow_hard_threshold = 0.95;

packet_size = 1;


ordered_injection_coefficients = {0.1666666667,0.3333333333,0.5};
ordered_injection_phase_cycles = {1000,1000,1000};
ordered_injection_source_order = {4,0,7,2,8,1,5,3,6};
ordered_injection_flow_peak_rate = 0.60;
warmup_periods = 2;
custom_perm_array = {4,3,6,1,8,7,2,5,0};
injection_process = scheduled;
injection_rate = 0.6;
scheduled_default_phase_cycles = 3000;
perm_seed = 2204;
hybrid_flow_hotspot_alpha = 0.85;
hybrid_stats_window_cycles = 3000;
hybrid_flow_hotspot_threshold = 1.1;
sample_period = 3000;
scheduled_injection_rates = {0.05,0.1,0.15,0.2,0.25,0.3,0.35,0.4,0.45,0.5,0.55,0.6,0.6,0.6};
traffic = custom_perm;
routing_function = racke_tree;
scheduled_phase_cycles = {3000,3000,3000,3000,3000,3000,3000,3000,3000,3000,3000,3000,3000,3000};
seed = 2204;
max_samples = 22;

END Configuration File: D:\noc_huawei\noc\booksim2-noc_speedup_study\booksim2-noc_speedup_study\tests\data\results\fixed_perm_growth_models_perm_4_3_6_1_8_7_2_5_0_peak_0p6_current_defaults\tmp_configs\linear_scale_racke_tree_s2204.config
Class 0:
Packet latency average = 14.3885
	minimum = 11
	maximum = 19
	95th percentile = 17.5
	99th percentile = 18.5
Network latency average = 14.3885
	minimum = 11
	maximum = 19
	95th percentile = 17.5
	99th percentile = 18.5
Slowest packet = 234
Flit latency average = 14.3885
	minimum = 11
	maximum = 19
	95th percentile = 17.5
	99th percentile = 18.5
Slowest flit = 234
Fragmentation average = 0
	minimum = 0
	maximum = 0
Injected packet rate average = 0.0500741
	minimum = 0.043 (at node 1)
	maximum = 0.0553333 (at node 0)
Accepted packet rate average = 0.0496667
	minimum = 0.0426667 (at node 3)
	maximum = 0.055 (at node 4)
Injected flit rate average = 0.0500741
	minimum = 0.043 (at node 1)
	maximum = 0.0553333 (at node 0)
Accepted flit rate average= 0.0496667
	minimum = 0.0426667 (at node 3)
	maximum = 0.055 (at node 4)
Injected packet length average = 1
Accepted packet length average = 1
Total in-flight flits = 11 (0 measured)
====== Peak Queue Occupancy Statistics (Absolute Max) ======
  Overall Max VC Occupancy = 1
  Overall Max Buffer Occupancy = 2
latency change    = 1
throughput change = 1
Class 0:
Packet latency average = 14.4299
	minimum = 11
	maximum = 20
	95th percentile = 18.5
	99th percentile = 18.5
Network latency average = 14.4299
	minimum = 11
	maximum = 20
	95th percentile = 18.5
	99th percentile = 18.5
Slowest packet = 2912
Flit latency average = 14.4299
	minimum = 11
	maximum = 20
	95th percentile = 18.5
	99th percentile = 18.5
Slowest flit = 2912
Fragmentation average = 0
	minimum = 0
	maximum = 0
Injected packet rate average = 0.0766111
	minimum = 0.0706667 (at node 1)
	maximum = 0.0818333 (at node 0)
Accepted packet rate average = 0.0762963
	minimum = 0.0705 (at node 3)
	maximum = 0.0816667 (at node 4)
Injected flit rate average = 0.0766111
	minimum = 0.0706667 (at node 1)
	maximum = 0.0818333 (at node 0)
Accepted flit rate average= 0.0762963
	minimum = 0.0705 (at node 3)
	maximum = 0.0816667 (at node 4)
Injected packet length average = 1
Accepted packet length average = 1
Total in-flight flits = 17 (0 measured)
====== Peak Queue Occupancy Statistics (Absolute Max) ======
  Overall Max VC Occupancy = 1
  Overall Max Buffer Occupancy = 2
latency change    = 0.00286478
throughput change = 0.349029
Warmed up ...Time used is 6000 cycles
Class 0:
Packet latency average = 14.5441
	minimum = 11
	maximum = 21
	95th percentile = 18.5
	99th percentile = 19.5
Network latency average = 14.5441
	minimum = 11
	maximum = 21
	95th percentile = 18.5
	99th percentile = 19.5
Slowest packet = 4170
Flit latency average = 14.547
	minimum = 11
	maximum = 21
	95th percentile = 18.5
	99th percentile = 19.5
Slowest flit = 4170
Fragmentation average = 0
	minimum = 0
	maximum = 0
Injected packet rate average = 0.150333
	minimum = 0.140667 (at node 4)
	maximum = 0.167333 (at node 1)
Accepted packet rate average = 0.150185
	minimum = 0.141 (at node 8)
	maximum = 0.167 (at node 3)
Injected flit rate average = 0.150333
	minimum = 0.140667 (at node 4)
	maximum = 0.167333 (at node 1)
Accepted flit rate average= 0.150185
	minimum = 0.141 (at node 8)
	maximum = 0.167 (at node 3)
Injected packet length average = 1
Accepted packet length average = 1
Total in-flight flits = 21 (21 measured)
====== Peak Queue Occupancy Statistics (Absolute Max) ======
  Overall Max VC Occupancy = 1
  Overall Max Buffer Occupancy = 2
latency change    = 0.00785384
throughput change = 0.491985
Class 0:
Packet latency average = 14.5999
	minimum = 11
	maximum = 23
	95th percentile = 18.5
	99th percentile = 19.5
Network latency average = 14.5999
	minimum = 11
	maximum = 23
	95th percentile = 18.5
	99th percentile = 19.5
Slowest packet = 10782
Flit latency average = 14.601
	minimum = 11
	maximum = 23
	95th percentile = 18.5
	99th percentile = 19.5
Slowest flit = 10782
Fragmentation average = 0
	minimum = 0
	maximum = 0
Injected packet rate average = 0.173685
	minimum = 0.171 (at node 3)
	maximum = 0.179 (at node 1)
Accepted packet rate average = 0.173444
	minimum = 0.170833 (at node 1)
	maximum = 0.1785 (at node 3)
Injected flit rate average = 0.173685
	minimum = 0.171 (at node 3)
	maximum = 0.179 (at node 1)
Accepted flit rate average= 0.173444
	minimum = 0.170833 (at node 1)
	maximum = 0.1785 (at node 3)
Injected packet length average = 1
Accepted packet length average = 1
Total in-flight flits = 30 (30 measured)
====== Peak Queue Occupancy Statistics (Absolute Max) ======
  Overall Max VC Occupancy = 1
  Overall Max Buffer Occupancy = 2
latency change    = 0.00381984
throughput change = 0.134102
Class 0:
Packet latency average = 14.6844
	minimum = 11
	maximum = 23
	95th percentile = 18.5
	99th percentile = 19.5
Network latency average = 14.6844
	minimum = 11
	maximum = 23
	95th percentile = 18.5
	99th percentile = 19.5
Slowest packet = 10782
Flit latency average = 14.685
	minimum = 11
	maximum = 23
	95th percentile = 18.5
	99th percentile = 19.5
Slowest flit = 10782
Fragmentation average = 0
	minimum = 0
	maximum = 0
Injected packet rate average = 0.198617
	minimum = 0.194444 (at node 4)
	maximum = 0.201778 (at node 6)
Accepted packet rate average = 0.198519
	minimum = 0.194556 (at node 1)
	maximum = 0.201778 (at node 2)
Injected flit rate average = 0.198617
	minimum = 0.194444 (at node 4)
	maximum = 0.201778 (at node 6)
Accepted flit rate average= 0.198519
	minimum = 0.194556 (at node 1)
	maximum = 0.201778 (at node 2)
Injected packet length average = 1
Accepted packet length average = 1
Total in-flight flits = 25 (25 measured)
====== Peak Queue Occupancy Statistics (Absolute Max) ======
  Overall Max VC Occupancy = 1
  Overall Max Buffer Occupancy = 2
latency change    = 0.00575561
throughput change = 0.126306
Class 0:
Packet latency average = 14.7647
	minimum = 11
	maximum = 23
	95th percentile = 19.5
	99th percentile = 20.5
Network latency average = 14.7647
	minimum = 11
	maximum = 23
	95th percentile = 19.5
	99th percentile = 20.5
Slowest packet = 10782
Flit latency average = 14.7651
	minimum = 11
	maximum = 23
	95th percentile = 19.5
	99th percentile = 20.5
Slowest flit = 10782
Fragmentation average = 0
	minimum = 0
	maximum = 0
Injected packet rate average = 0.223759
	minimum = 0.218833 (at node 4)
	maximum = 0.229583 (at node 2)
Accepted packet rate average = 0.223472
	minimum = 0.218667 (at node 8)
	maximum = 0.229167 (at node 6)
Injected flit rate average = 0.223759
	minimum = 0.218833 (at node 4)
	maximum = 0.229583 (at node 2)
Accepted flit rate average= 0.223472
	minimum = 0.218667 (at node 8)
	maximum = 0.229167 (at node 6)
Injected packet length average = 1
Accepted packet length average = 1
Total in-flight flits = 48 (48 measured)
====== Peak Queue Occupancy Statistics (Absolute Max) ======
  Overall Max VC Occupancy = 1
  Overall Max Buffer Occupancy = 2
latency change    = 0.00544352
throughput change = 0.111664
Class 0:
Packet latency average = 14.8453
	minimum = 11
	maximum = 23
	95th percentile = 19.5
	99th percentile = 20.5
Network latency average = 14.8453
	minimum = 11
	maximum = 23
	95th percentile = 19.5
	99th percentile = 20.5
Slowest packet = 10782
Flit latency average = 14.8455
	minimum = 11
	maximum = 23
	95th percentile = 19.5
	99th percentile = 20.5
Slowest flit = 10782
Fragmentation average = 0
	minimum = 0
	maximum = 0
Injected packet rate average = 0.249496
	minimum = 0.2464 (at node 8)
	maximum = 0.254067 (at node 2)
Accepted packet rate average = 0.249311
	minimum = 0.246267 (at node 0)
	maximum = 0.253867 (at node 6)
Injected flit rate average = 0.249496
	minimum = 0.2464 (at node 8)
	maximum = 0.254067 (at node 2)
Accepted flit rate average= 0.249311
	minimum = 0.246267 (at node 0)
	maximum = 0.253867 (at node 6)
Injected packet length average = 1
Accepted packet length average = 1
Total in-flight flits = 42 (42 measured)
====== Peak Queue Occupancy Statistics (Absolute Max) ======
  Overall Max VC Occupancy = 1
  Overall Max Buffer Occupancy = 2
latency change    = 0.00542485
throughput change = 0.103641
Class 0:
Packet latency average = 14.9314
	minimum = 11
	maximum = 23
	95th percentile = 19.5
	99th percentile = 20.5
Network latency average = 14.9314
	minimum = 11
	maximum = 23
	95th percentile = 19.5
	99th percentile = 20.5
Slowest packet = 10782
Flit latency average = 14.9315
	minimum = 11
	maximum = 23
	95th percentile = 19.5
	99th percentile = 20.5
Slowest flit = 10782
Fragmentation average = 0
	minimum = 0
	maximum = 0
Injected packet rate average = 0.274401
	minimum = 0.268722 (at node 0)
	maximum = 0.279111 (at node 6)
Accepted packet rate average = 0.274167
	minimum = 0.268444 (at node 4)
	maximum = 0.278944 (at node 2)
Injected flit rate average = 0.274401
	minimum = 0.268722 (at node 0)
	maximum = 0.279111 (at node 6)
Accepted flit rate average= 0.274167
	minimum = 0.268444 (at node 4)
	maximum = 0.278944 (at node 2)
Injected packet length average = 1
Accepted packet length average = 1
Total in-flight flits = 55 (55 measured)
====== Peak Queue Occupancy Statistics (Absolute Max) ======
  Overall Max VC Occupancy = 1
  Overall Max Buffer Occupancy = 2
latency change    = 0.0057692
throughput change = 0.0906586
Class 0:
Packet latency average = 15.0233
	minimum = 11
	maximum = 24
	95th percentile = 19.5
	99th percentile = 21.5
Network latency average = 15.0233
	minimum = 11
	maximum = 24
	95th percentile = 19.5
	99th percentile = 21.5
Slowest packet = 49736
Flit latency average = 15.0233
	minimum = 11
	maximum = 24
	95th percentile = 19.5
	99th percentile = 21.5
Slowest flit = 49736
Fragmentation average = 0
	minimum = 0
	maximum = 0
Injected packet rate average = 0.300011
	minimum = 0.295619 (at node 0)
	maximum = 0.304762 (at node 2)
Accepted packet rate average = 0.299767
	minimum = 0.295238 (at node 4)
	maximum = 0.304524 (at node 6)
Injected flit rate average = 0.300011
	minimum = 0.295619 (at node 0)
	maximum = 0.304762 (at node 2)
Accepted flit rate average= 0.299767
	minimum = 0.295238 (at node 4)
	maximum = 0.304524 (at node 6)
Injected packet length average = 1
Accepted packet length average = 1
Total in-flight flits = 63 (63 measured)
====== Peak Queue Occupancy Statistics (Absolute Max) ======
  Overall Max VC Occupancy = 1
  Overall Max Buffer Occupancy = 2
latency change    = 0.00611297
throughput change = 0.0854014
Class 0:
Packet latency average = 15.1209
	minimum = 11
	maximum = 25
	95th percentile = 20.5
	99th percentile = 21.5
Network latency average = 15.1209
	minimum = 11
	maximum = 25
	95th percentile = 20.5
	99th percentile = 21.5
Slowest packet = 66208
Flit latency average = 15.1209
	minimum = 11
	maximum = 25
	95th percentile = 20.5
	99th percentile = 21.5
Slowest flit = 66208
Fragmentation average = 0
	minimum = 0
	maximum = 0
Injected packet rate average = 0.325079
	minimum = 0.322833 (at node 0)
	maximum = 0.3295 (at node 2)
Accepted packet rate average = 0.324833
	minimum = 0.322458 (at node 4)
	maximum = 0.329417 (at node 6)
Injected flit rate average = 0.325079
	minimum = 0.322833 (at node 0)
	maximum = 0.3295 (at node 2)
Accepted flit rate average= 0.324833
	minimum = 0.322458 (at node 4)
	maximum = 0.329417 (at node 6)
Injected packet length average = 1
Accepted packet length average = 1
Total in-flight flits = 70 (70 measured)
====== Peak Queue Occupancy Statistics (Absolute Max) ======
  Overall Max VC Occupancy = 1
  Overall Max Buffer Occupancy = 2
latency change    = 0.00645706
throughput change = 0.0771661
Class 0:
Packet latency average = 15.2257
	minimum = 11
	maximum = 25
	95th percentile = 20.5
	99th percentile = 21.5
Network latency average = 15.2257
	minimum = 11
	maximum = 25
	95th percentile = 20.5
	99th percentile = 21.5
Slowest packet = 66208
Flit latency average = 15.2257
	minimum = 11
	maximum = 25
	95th percentile = 20.5
	99th percentile = 21.5
Slowest flit = 66208
Fragmentation average = 0
	minimum = 0
	maximum = 0
Injected packet rate average = 0.349901
	minimum = 0.346111 (at node 7)
	maximum = 0.353444 (at node 2)
Accepted packet rate average = 0.349658
	minimum = 0.345889 (at node 5)
	maximum = 0.353185 (at node 6)
Injected flit rate average = 0.349901
	minimum = 0.346111 (at node 7)
	maximum = 0.353444 (at node 2)
Accepted flit rate average= 0.349658
	minimum = 0.345889 (at node 5)
	maximum = 0.353185 (at node 6)
Injected packet length average = 1
Accepted packet length average = 1
Total in-flight flits = 76 (76 measured)
====== Peak Queue Occupancy Statistics (Absolute Max) ======
  Overall Max VC Occupancy = 1
  Overall Max Buffer Occupancy = 2
latency change    = 0.00688673
throughput change = 0.0709982
Class 0:
Packet latency average = 15.3337
	minimum = 11
	maximum = 26
	95th percentile = 20.5
	99th percentile = 21.5
Network latency average = 15.3337
	minimum = 11
	maximum = 26
	95th percentile = 20.5
	99th percentile = 21.5
Slowest packet = 94729
Flit latency average = 15.3336
	minimum = 11
	maximum = 26
	95th percentile = 20.5
	99th percentile = 21.5
Slowest flit = 94729
Fragmentation average = 0
	minimum = 0
	maximum = 0
Injected packet rate average = 0.375019
	minimum = 0.371567 (at node 7)
	maximum = 0.3786 (at node 2)
Accepted packet rate average = 0.374759
	minimum = 0.3713 (at node 5)
	maximum = 0.3783 (at node 6)
Injected flit rate average = 0.375019
	minimum = 0.371567 (at node 7)
	maximum = 0.3786 (at node 2)
Accepted flit rate average= 0.374759
	minimum = 0.3713 (at node 5)
	maximum = 0.3783 (at node 6)
Injected packet length average = 1
Accepted packet length average = 1
Total in-flight flits = 87 (87 measured)
====== Peak Queue Occupancy Statistics (Absolute Max) ======
  Overall Max VC Occupancy = 1
  Overall Max Buffer Occupancy = 3
latency change    = 0.00703736
throughput change = 0.0669785
Class 0:
Packet latency average = 15.4181
	minimum = 11
	maximum = 26
	95th percentile = 20.5
	99th percentile = 22.5
Network latency average = 15.4181
	minimum = 11
	maximum = 26
	95th percentile = 20.5
	99th percentile = 22.5
Slowest packet = 94729
Flit latency average = 15.4181
	minimum = 11
	maximum = 26
	95th percentile = 20.5
	99th percentile = 22.5
Slowest flit = 94729
Fragmentation average = 0
	minimum = 0
	maximum = 0
Injected packet rate average = 0.395764
	minimum = 0.392333 (at node 7)
	maximum = 0.399152 (at node 2)
Accepted packet rate average = 0.395586
	minimum = 0.392303 (at node 5)
	maximum = 0.399 (at node 6)
Injected flit rate average = 0.395764
	minimum = 0.392333 (at node 7)
	maximum = 0.399152 (at node 2)
Accepted flit rate average= 0.395586
	minimum = 0.392303 (at node 5)
	maximum = 0.399 (at node 6)
Injected packet length average = 1
Accepted packet length average = 1
Total in-flight flits = 70 (70 measured)
====== Peak Queue Occupancy Statistics (Absolute Max) ======
  Overall Max VC Occupancy = 1
  Overall Max Buffer Occupancy = 3
latency change    = 0.00547931
throughput change = 0.0526475
Class 0:
Packet latency average = 15.4772
	minimum = 11
	maximum = 26
	95th percentile = 20.5
	99th percentile = 22.5
Network latency average = 15.4772
	minimum = 11
	maximum = 26
	95th percentile = 20.5
	99th percentile = 22.5
Slowest packet = 94729
Flit latency average = 15.4772
	minimum = 11
	maximum = 26
	95th percentile = 20.5
	99th percentile = 22.5
Slowest flit = 94729
Fragmentation average = 0
	minimum = 0
	maximum = 0
Injected packet rate average = 0.412988
	minimum = 0.410778 (at node 7)
	maximum = 0.415917 (at node 2)
Accepted packet rate average = 0.412772
	minimum = 0.410556 (at node 5)
	maximum = 0.415639 (at node 6)
Injected flit rate average = 0.412988
	minimum = 0.410778 (at node 7)
	maximum = 0.415917 (at node 2)
Accepted flit rate average= 0.412772
	minimum = 0.410556 (at node 5)
	maximum = 0.415639 (at node 6)
Injected packet length average = 1
Accepted packet length average = 1
Total in-flight flits = 87 (87 measured)
====== Peak Queue Occupancy Statistics (Absolute Max) ======
  Overall Max VC Occupancy = 1
  Overall Max Buffer Occupancy = 3
latency change    = 0.00381603
throughput change = 0.041635
Class 0:
Packet latency average = 15.5236
	minimum = 11
	maximum = 26
	95th percentile = 20.5
	99th percentile = 22.5
Network latency average = 15.5236
	minimum = 11
	maximum = 26
	95th percentile = 20.5
	99th percentile = 22.5
Slowest packet = 94729
Flit latency average = 15.5236
	minimum = 11
	maximum = 26
	95th percentile = 20.5
	99th percentile = 22.5
Slowest flit = 94729
Fragmentation average = 0
	minimum = 0
	maximum = 0
Injected packet rate average = 0.427385
	minimum = 0.424923 (at node 7)
	maximum = 0.429795 (at node 2)
Accepted packet rate average = 0.427165
	minimum = 0.424667 (at node 5)
	maximum = 0.429641 (at node 6)
Injected flit rate average = 0.427385
	minimum = 0.424923 (at node 7)
	maximum = 0.429795 (at node 2)
Accepted flit rate average= 0.427165
	minimum = 0.424667 (at node 5)
	maximum = 0.429641 (at node 6)
Injected packet length average = 1
Accepted packet length average = 1
Total in-flight flits = 94 (94 measured)
====== Peak Queue Occupancy Statistics (Absolute Max) ======
  Overall Max VC Occupancy = 1
  Overall Max Buffer Occupancy = 3
latency change    = 0.00299186
throughput change = 0.0336957
Class 0:
Packet latency average = 15.5614
	minimum = 11
	maximum = 26
	95th percentile = 20.5
	99th percentile = 22.5
Network latency average = 15.5614
	minimum = 11
	maximum = 26
	95th percentile = 20.5
	99th percentile = 22.5
Slowest packet = 94729
Flit latency average = 15.5614
	minimum = 11
	maximum = 26
	95th percentile = 20.5
	99th percentile = 22.5
Slowest flit = 94729
Fragmentation average = 0
	minimum = 0
	maximum = 0
Injected packet rate average = 0.439561
	minimum = 0.436381 (at node 7)
	maximum = 0.442619 (at node 2)
Accepted packet rate average = 0.43937
	minimum = 0.436214 (at node 5)
	maximum = 0.442452 (at node 6)
Injected flit rate average = 0.439561
	minimum = 0.436381 (at node 7)
	maximum = 0.442619 (at node 2)
Accepted flit rate average= 0.43937
	minimum = 0.436214 (at node 5)
	maximum = 0.442452 (at node 6)
Injected packet length average = 1
Accepted packet length average = 1
Total in-flight flits = 89 (89 measured)
====== Peak Queue Occupancy Statistics (Absolute Max) ======
  Overall Max VC Occupancy = 1
  Overall Max Buffer Occupancy = 3
latency change    = 0.00242697
throughput change = 0.0277787
Draining all recorded packets ...
Draining remaining packets ...
Time taken is 48043 cycles
====== Overall Traffic Statistics ======
====== Traffic class 0 ======
Packet latency average = 15.562 (1 samples)
	minimum = 11 (1 samples)
	maximum = 26 (1 samples)
Network latency average = 15.562 (1 samples)
	minimum = 11 (1 samples)
	maximum = 26 (1 samples)
Flit latency average = 15.562 (1 samples)
	minimum = 11 (1 samples)
	maximum = 26 (1 samples)
Fragmentation average = 0 (1 samples)
	minimum = 0 (1 samples)
	maximum = 0 (1 samples)
Injected packet rate average = 0.439561 (1 samples)
	minimum = 0.436381 (1 samples)
	maximum = 0.442619 (1 samples)
Accepted packet rate average = 0.43937 (1 samples)
	minimum = 0.436214 (1 samples)
	maximum = 0.442452 (1 samples)
Injected flit rate average = 0.439561 (1 samples)
	minimum = 0.436381 (1 samples)
	maximum = 0.442619 (1 samples)
Accepted flit rate average = 0.43937 (1 samples)
	minimum = 0.436214 (1 samples)
	maximum = 0.442452 (1 samples)
Injected packet size average = 1 (1 samples)
Accepted packet size average = 1 (1 samples)
Hops average = 4.11255 (1 samples)
Total run time 6.40671

