BEGIN Configuration File: D:\noc_huawei\noc\booksim2-noc_speedup_study\booksim2-noc_speedup_study\tests\data\results\fixed_perm_growth_models_perm_4_3_6_1_8_7_2_5_0_peak_0p6_current_defaults\tmp_configs\linear_scale_racke_tree_s2203.config
num_vcs     = 48;
vc_buf_size = 16;
wait_for_tail_credit = 1;

vc_allocator = islip;
sw_allocator = islip;
alloc_iters  = 16;

credit_delay   = 2;
routing_delay  = 0;
vc_alloc_delay = 1;
sw_alloc_delay = 1;
st_final_delay = 1;

input_speedup     = 1;
output_speedup    = 1;
internal_speedup  = 2.0;

sim_type = latency;
latency_thres  = 100000.0;
sim_count      = 1;
queue_sample_period_cycles = 0;

topology = mesh;
k  = 3;
n  = 2;

hybrid_transition_mode = linear_prob;
hybrid_xy_low_threshold = 0.35;
hybrid_racke_high_threshold = 0.65;
hybrid_buffer_soft_threshold = 0.50;
hybrid_buffer_hard_threshold = 0.85;
hybrid_buffer_release_threshold = 0.35;
hybrid_rate_soft_threshold = 0.55;
hybrid_rate_hard_threshold = 0.90;
hybrid_rate_weight = 0.25;
hybrid_congestion_alpha = 0.25;
hybrid_racke_increase_step = 0.25;
hybrid_racke_decrease_step = 0.10;
hybrid_epoch_cycles = 200;
hybrid_hold_cycles = 600;
hybrid_enable_midflight_override = 1;
hybrid_feedback_delay_per_hop = 1;
hybrid_flow_increase_step = 0.20;
hybrid_flow_decrease_step = 0.08;
hybrid_flow_hard_threshold = 0.95;

packet_size = 1;


ordered_injection_coefficients = {0.1666666667,0.3333333333,0.5};
ordered_injection_phase_cycles = {1000,1000,1000};
ordered_injection_source_order = {4,0,7,2,8,1,5,3,6};
ordered_injection_flow_peak_rate = 0.60;
warmup_periods = 2;
custom_perm_array = {4,3,6,1,8,7,2,5,0};
injection_process = scheduled;
injection_rate = 0.6;
scheduled_default_phase_cycles = 3000;
perm_seed = 2203;
hybrid_flow_hotspot_alpha = 0.85;
hybrid_stats_window_cycles = 3000;
hybrid_flow_hotspot_threshold = 1.1;
sample_period = 3000;
scheduled_injection_rates = {0.05,0.1,0.15,0.2,0.25,0.3,0.35,0.4,0.45,0.5,0.55,0.6,0.6,0.6};
traffic = custom_perm;
routing_function = racke_tree;
scheduled_phase_cycles = {3000,3000,3000,3000,3000,3000,3000,3000,3000,3000,3000,3000,3000,3000};
seed = 2203;
max_samples = 22;

END Configuration File: D:\noc_huawei\noc\booksim2-noc_speedup_study\booksim2-noc_speedup_study\tests\data\results\fixed_perm_growth_models_perm_4_3_6_1_8_7_2_5_0_peak_0p6_current_defaults\tmp_configs\linear_scale_racke_tree_s2203.config
Class 0:
Packet latency average = 14.3967
	minimum = 11
	maximum = 19
	95th percentile = 17.5
	99th percentile = 18.5
Network latency average = 14.3967
	minimum = 11
	maximum = 19
	95th percentile = 17.5
	99th percentile = 18.5
Slowest packet = 257
Flit latency average = 14.3967
	minimum = 11
	maximum = 19
	95th percentile = 17.5
	99th percentile = 18.5
Slowest flit = 257
Fragmentation average = 0
	minimum = 0
	maximum = 0
Injected packet rate average = 0.0513704
	minimum = 0.0443333 (at node 2)
	maximum = 0.0586667 (at node 6)
Accepted packet rate average = 0.0510741
	minimum = 0.044 (at node 6)
	maximum = 0.0583333 (at node 2)
Injected flit rate average = 0.0513704
	minimum = 0.0443333 (at node 2)
	maximum = 0.0586667 (at node 6)
Accepted flit rate average= 0.0510741
	minimum = 0.044 (at node 6)
	maximum = 0.0583333 (at node 2)
Injected packet length average = 1
Accepted packet length average = 1
Total in-flight flits = 8 (0 measured)
====== Peak Queue Occupancy Statistics (Absolute Max) ======
  Overall Max VC Occupancy = 1
  Overall Max Buffer Occupancy = 2
latency change    = 1
throughput change = 1
Class 0:
Packet latency average = 14.4263
	minimum = 11
	maximum = 19
	95th percentile = 18.5
	99th percentile = 18.5
Network latency average = 14.4263
	minimum = 11
	maximum = 19
	95th percentile = 18.5
	99th percentile = 18.5
Slowest packet = 257
Flit latency average = 14.4263
	minimum = 11
	maximum = 19
	95th percentile = 18.5
	99th percentile = 18.5
Slowest flit = 257
Fragmentation average = 0
	minimum = 0
	maximum = 0
Injected packet rate average = 0.0757963
	minimum = 0.0723333 (at node 1)
	maximum = 0.0813333 (at node 5)
Accepted packet rate average = 0.0755926
	minimum = 0.0723333 (at node 3)
	maximum = 0.081 (at node 7)
Injected flit rate average = 0.0757963
	minimum = 0.0723333 (at node 1)
	maximum = 0.0813333 (at node 5)
Accepted flit rate average= 0.0755926
	minimum = 0.0723333 (at node 3)
	maximum = 0.081 (at node 7)
Injected packet length average = 1
Accepted packet length average = 1
Total in-flight flits = 11 (0 measured)
====== Peak Queue Occupancy Statistics (Absolute Max) ======
  Overall Max VC Occupancy = 1
  Overall Max Buffer Occupancy = 2
latency change    = 0.00205163
throughput change = 0.324351
Warmed up ...Time used is 6000 cycles
Class 0:
Packet latency average = 14.5501
	minimum = 11
	maximum = 22
	95th percentile = 18.5
	99th percentile = 19.5
Network latency average = 14.5501
	minimum = 11
	maximum = 22
	95th percentile = 18.5
	99th percentile = 19.5
Slowest packet = 7950
Flit latency average = 14.5508
	minimum = 11
	maximum = 22
	95th percentile = 18.5
	99th percentile = 19.5
Slowest flit = 7950
Fragmentation average = 0
	minimum = 0
	maximum = 0
Injected packet rate average = 0.153074
	minimum = 0.145333 (at node 1)
	maximum = 0.163333 (at node 5)
Accepted packet rate average = 0.152963
	minimum = 0.144667 (at node 3)
	maximum = 0.163667 (at node 7)
Injected flit rate average = 0.153074
	minimum = 0.145333 (at node 1)
	maximum = 0.163333 (at node 5)
Accepted flit rate average= 0.152963
	minimum = 0.144667 (at node 3)
	maximum = 0.163667 (at node 7)
Injected packet length average = 1
Accepted packet length average = 1
Total in-flight flits = 14 (14 measured)
====== Peak Queue Occupancy Statistics (Absolute Max) ======
  Overall Max VC Occupancy = 1
  Overall Max Buffer Occupancy = 2
latency change    = 0.00851345
throughput change = 0.505811
Class 0:
Packet latency average = 14.6333
	minimum = 11
	maximum = 22
	95th percentile = 18.5
	99th percentile = 19.5
Network latency average = 14.6333
	minimum = 11
	maximum = 22
	95th percentile = 18.5
	99th percentile = 19.5
Slowest packet = 7950
Flit latency average = 14.6335
	minimum = 11
	maximum = 22
	95th percentile = 18.5
	99th percentile = 19.5
Slowest flit = 7950
Fragmentation average = 0
	minimum = 0
	maximum = 0
Injected packet rate average = 0.177148
	minimum = 0.168833 (at node 0)
	maximum = 0.183167 (at node 8)
Accepted packet rate average = 0.177
	minimum = 0.168833 (at node 4)
	maximum = 0.183333 (at node 0)
Injected flit rate average = 0.177148
	minimum = 0.168833 (at node 0)
	maximum = 0.183167 (at node 8)
Accepted flit rate average= 0.177
	minimum = 0.168833 (at node 4)
	maximum = 0.183333 (at node 0)
Injected packet length average = 1
Accepted packet length average = 1
Total in-flight flits = 19 (19 measured)
====== Peak Queue Occupancy Statistics (Absolute Max) ======
  Overall Max VC Occupancy = 1
  Overall Max Buffer Occupancy = 2
latency change    = 0.00568255
throughput change = 0.135802
Class 0:
Packet latency average = 14.691
	minimum = 11
	maximum = 22
	95th percentile = 18.5
	99th percentile = 19.5
Network latency average = 14.691
	minimum = 11
	maximum = 22
	95th percentile = 18.5
	99th percentile = 19.5
Slowest packet = 7950
Flit latency average = 14.691
	minimum = 11
	maximum = 22
	95th percentile = 18.5
	99th percentile = 19.5
Slowest flit = 7950
Fragmentation average = 0
	minimum = 0
	maximum = 0
Injected packet rate average = 0.202395
	minimum = 0.195444 (at node 6)
	maximum = 0.208 (at node 8)
Accepted packet rate average = 0.202111
	minimum = 0.195 (at node 2)
	maximum = 0.207778 (at node 0)
Injected flit rate average = 0.202395
	minimum = 0.195444 (at node 6)
	maximum = 0.208 (at node 8)
Accepted flit rate average= 0.202111
	minimum = 0.195 (at node 2)
	maximum = 0.207778 (at node 0)
Injected packet length average = 1
Accepted packet length average = 1
Total in-flight flits = 34 (34 measured)
====== Peak Queue Occupancy Statistics (Absolute Max) ======
  Overall Max VC Occupancy = 1
  Overall Max Buffer Occupancy = 2
latency change    = 0.00392525
throughput change = 0.124244
Class 0:
Packet latency average = 14.7681
	minimum = 11
	maximum = 23
	95th percentile = 19.5
	99th percentile = 20.5
Network latency average = 14.7681
	minimum = 11
	maximum = 23
	95th percentile = 19.5
	99th percentile = 20.5
Slowest packet = 26454
Flit latency average = 14.7681
	minimum = 11
	maximum = 23
	95th percentile = 19.5
	99th percentile = 20.5
Slowest flit = 26454
Fragmentation average = 0
	minimum = 0
	maximum = 0
Injected packet rate average = 0.227157
	minimum = 0.219167 (at node 6)
	maximum = 0.234333 (at node 8)
Accepted packet rate average = 0.226926
	minimum = 0.218833 (at node 2)
	maximum = 0.234167 (at node 0)
Injected flit rate average = 0.227157
	minimum = 0.219167 (at node 6)
	maximum = 0.234333 (at node 8)
Accepted flit rate average= 0.226926
	minimum = 0.218833 (at node 2)
	maximum = 0.234167 (at node 0)
Injected packet length average = 1
Accepted packet length average = 1
Total in-flight flits = 36 (36 measured)
====== Peak Queue Occupancy Statistics (Absolute Max) ======
  Overall Max VC Occupancy = 1
  Overall Max Buffer Occupancy = 2
latency change    = 0.00522071
throughput change = 0.109352
Class 0:
Packet latency average = 14.8435
	minimum = 11
	maximum = 23
	95th percentile = 19.5
	99th percentile = 20.5
Network latency average = 14.8435
	minimum = 11
	maximum = 23
	95th percentile = 19.5
	99th percentile = 20.5
Slowest packet = 26454
Flit latency average = 14.8435
	minimum = 11
	maximum = 23
	95th percentile = 19.5
	99th percentile = 20.5
Slowest flit = 26454
Fragmentation average = 0
	minimum = 0
	maximum = 0
Injected packet rate average = 0.252178
	minimum = 0.2454 (at node 6)
	maximum = 0.259333 (at node 8)
Accepted packet rate average = 0.251852
	minimum = 0.2452 (at node 2)
	maximum = 0.259 (at node 0)
Injected flit rate average = 0.252178
	minimum = 0.2454 (at node 6)
	maximum = 0.259333 (at node 8)
Accepted flit rate average= 0.251852
	minimum = 0.2452 (at node 2)
	maximum = 0.259 (at node 0)
Injected packet length average = 1
Accepted packet length average = 1
Total in-flight flits = 55 (55 measured)
====== Peak Queue Occupancy Statistics (Absolute Max) ======
  Overall Max VC Occupancy = 1
  Overall Max Buffer Occupancy = 2
latency change    = 0.00508139
throughput change = 0.0989706
Class 0:
Packet latency average = 14.9256
	minimum = 11
	maximum = 24
	95th percentile = 19.5
	99th percentile = 20.5
Network latency average = 14.9256
	minimum = 11
	maximum = 24
	95th percentile = 19.5
	99th percentile = 20.5
Slowest packet = 38075
Flit latency average = 14.9256
	minimum = 11
	maximum = 24
	95th percentile = 19.5
	99th percentile = 20.5
Slowest flit = 38075
Fragmentation average = 0
	minimum = 0
	maximum = 0
Injected packet rate average = 0.276932
	minimum = 0.273444 (at node 1)
	maximum = 0.283444 (at node 8)
Accepted packet rate average = 0.276667
	minimum = 0.273056 (at node 3)
	maximum = 0.283111 (at node 0)
Injected flit rate average = 0.276932
	minimum = 0.273444 (at node 1)
	maximum = 0.283444 (at node 8)
Accepted flit rate average= 0.276667
	minimum = 0.273056 (at node 3)
	maximum = 0.283111 (at node 0)
Injected packet length average = 1
Accepted packet length average = 1
Total in-flight flits = 54 (54 measured)
====== Peak Queue Occupancy Statistics (Absolute Max) ======
  Overall Max VC Occupancy = 1
  Overall Max Buffer Occupancy = 2
latency change    = 0.00550173
throughput change = 0.0896921
Class 0:
Packet latency average = 15.0207
	minimum = 11
	maximum = 24
	95th percentile = 19.5
	99th percentile = 21.5
Network latency average = 15.0207
	minimum = 11
	maximum = 24
	95th percentile = 19.5
	99th percentile = 21.5
Slowest packet = 38075
Flit latency average = 15.0206
	minimum = 11
	maximum = 24
	95th percentile = 19.5
	99th percentile = 21.5
Slowest flit = 38075
Fragmentation average = 0
	minimum = 0
	maximum = 0
Injected packet rate average = 0.302053
	minimum = 0.294905 (at node 1)
	maximum = 0.30881 (at node 8)
Accepted packet rate average = 0.301741
	minimum = 0.294714 (at node 3)
	maximum = 0.308571 (at node 0)
Injected flit rate average = 0.302053
	minimum = 0.294905 (at node 1)
	maximum = 0.30881 (at node 8)
Accepted flit rate average= 0.301741
	minimum = 0.294714 (at node 3)
	maximum = 0.308571 (at node 0)
Injected packet length average = 1
Accepted packet length average = 1
Total in-flight flits = 70 (70 measured)
====== Peak Queue Occupancy Statistics (Absolute Max) ======
  Overall Max VC Occupancy = 1
  Overall Max Buffer Occupancy = 2
latency change    = 0.00632894
throughput change = 0.0830981
Class 0:
Packet latency average = 15.1171
	minimum = 11
	maximum = 24
	95th percentile = 20.5
	99th percentile = 21.5
Network latency average = 15.1171
	minimum = 11
	maximum = 24
	95th percentile = 20.5
	99th percentile = 21.5
Slowest packet = 38075
Flit latency average = 15.117
	minimum = 11
	maximum = 24
	95th percentile = 20.5
	99th percentile = 21.5
Slowest flit = 38075
Fragmentation average = 0
	minimum = 0
	maximum = 0
Injected packet rate average = 0.326856
	minimum = 0.320958 (at node 1)
	maximum = 0.332375 (at node 8)
Accepted packet rate average = 0.326644
	minimum = 0.320708 (at node 3)
	maximum = 0.332125 (at node 0)
Injected flit rate average = 0.326856
	minimum = 0.320958 (at node 1)
	maximum = 0.332375 (at node 8)
Accepted flit rate average= 0.326644
	minimum = 0.320708 (at node 3)
	maximum = 0.332125 (at node 0)
Injected packet length average = 1
Accepted packet length average = 1
Total in-flight flits = 57 (57 measured)
====== Peak Queue Occupancy Statistics (Absolute Max) ======
  Overall Max VC Occupancy = 1
  Overall Max Buffer Occupancy = 2
latency change    = 0.00637793
throughput change = 0.0762384
Class 0:
Packet latency average = 15.2211
	minimum = 11
	maximum = 25
	95th percentile = 20.5
	99th percentile = 21.5
Network latency average = 15.2211
	minimum = 11
	maximum = 25
	95th percentile = 20.5
	99th percentile = 21.5
Slowest packet = 74665
Flit latency average = 15.221
	minimum = 11
	maximum = 25
	95th percentile = 20.5
	99th percentile = 21.5
Slowest flit = 74665
Fragmentation average = 0
	minimum = 0
	maximum = 0
Injected packet rate average = 0.35165
	minimum = 0.346333 (at node 1)
	maximum = 0.356852 (at node 8)
Accepted packet rate average = 0.351342
	minimum = 0.346111 (at node 3)
	maximum = 0.356519 (at node 0)
Injected flit rate average = 0.35165
	minimum = 0.346333 (at node 1)
	maximum = 0.356852 (at node 8)
Accepted flit rate average= 0.351342
	minimum = 0.346111 (at node 3)
	maximum = 0.356519 (at node 0)
Injected packet length average = 1
Accepted packet length average = 1
Total in-flight flits = 86 (86 measured)
====== Peak Queue Occupancy Statistics (Absolute Max) ======
  Overall Max VC Occupancy = 1
  Overall Max Buffer Occupancy = 3
latency change    = 0.00683252
throughput change = 0.0702964
Class 0:
Packet latency average = 15.3433
	minimum = 11
	maximum = 27
	95th percentile = 20.5
	99th percentile = 21.5
Network latency average = 15.3433
	minimum = 11
	maximum = 27
	95th percentile = 20.5
	99th percentile = 21.5
Slowest packet = 105462
Flit latency average = 15.3432
	minimum = 11
	maximum = 27
	95th percentile = 20.5
	99th percentile = 21.5
Slowest flit = 105462
Fragmentation average = 0
	minimum = 0
	maximum = 0
Injected packet rate average = 0.376741
	minimum = 0.371167 (at node 1)
	maximum = 0.3818 (at node 8)
Accepted packet rate average = 0.376456
	minimum = 0.370967 (at node 3)
	maximum = 0.381467 (at node 0)
Injected flit rate average = 0.376741
	minimum = 0.371167 (at node 1)
	maximum = 0.3818 (at node 8)
Accepted flit rate average= 0.376456
	minimum = 0.370967 (at node 3)
	maximum = 0.381467 (at node 0)
Injected packet length average = 1
Accepted packet length average = 1
Total in-flight flits = 88 (88 measured)
====== Peak Queue Occupancy Statistics (Absolute Max) ======
  Overall Max VC Occupancy = 1
  Overall Max Buffer Occupancy = 3
latency change    = 0.00796399
throughput change = 0.0667117
Class 0:
Packet latency average = 15.428
	minimum = 11
	maximum = 27
	95th percentile = 20.5
	99th percentile = 22.5
Network latency average = 15.428
	minimum = 11
	maximum = 27
	95th percentile = 20.5
	99th percentile = 22.5
Slowest packet = 105462
Flit latency average = 15.4279
	minimum = 11
	maximum = 27
	95th percentile = 20.5
	99th percentile = 22.5
Slowest flit = 105462
Fragmentation average = 0
	minimum = 0
	maximum = 0
Injected packet rate average = 0.397562
	minimum = 0.392636 (at node 1)
	maximum = 0.402152 (at node 8)
Accepted packet rate average = 0.397303
	minimum = 0.392364 (at node 3)
	maximum = 0.401848 (at node 0)
Injected flit rate average = 0.397562
	minimum = 0.392636 (at node 1)
	maximum = 0.402152 (at node 8)
Accepted flit rate average= 0.397303
	minimum = 0.392364 (at node 3)
	maximum = 0.401848 (at node 0)
Injected packet length average = 1
Accepted packet length average = 1
Total in-flight flits = 88 (88 measured)
====== Peak Queue Occupancy Statistics (Absolute Max) ======
  Overall Max VC Occupancy = 1
  Overall Max Buffer Occupancy = 3
latency change    = 0.0054889
throughput change = 0.0524725
Class 0:
Packet latency average = 15.488
	minimum = 11
	maximum = 27
	95th percentile = 20.5
	99th percentile = 22.5
Network latency average = 15.488
	minimum = 11
	maximum = 27
	95th percentile = 20.5
	99th percentile = 22.5
Slowest packet = 105462
Flit latency average = 15.4879
	minimum = 11
	maximum = 27
	95th percentile = 20.5
	99th percentile = 22.5
Slowest flit = 105462
Fragmentation average = 0
	minimum = 0
	maximum = 0
Injected packet rate average = 0.414528
	minimum = 0.409778 (at node 6)
	maximum = 0.418444 (at node 8)
Accepted packet rate average = 0.414296
	minimum = 0.409444 (at node 2)
	maximum = 0.418139 (at node 0)
Injected flit rate average = 0.414528
	minimum = 0.409778 (at node 6)
	maximum = 0.418444 (at node 8)
Accepted flit rate average= 0.414296
	minimum = 0.409444 (at node 2)
	maximum = 0.418139 (at node 0)
Injected packet length average = 1
Accepted packet length average = 1
Total in-flight flits = 86 (86 measured)
====== Peak Queue Occupancy Statistics (Absolute Max) ======
  Overall Max VC Occupancy = 1
  Overall Max Buffer Occupancy = 3
latency change    = 0.00387629
throughput change = 0.0410172
Class 0:
Packet latency average = 15.5374
	minimum = 11
	maximum = 27
	95th percentile = 20.5
	99th percentile = 22.5
Network latency average = 15.5374
	minimum = 11
	maximum = 27
	95th percentile = 20.5
	99th percentile = 22.5
Slowest packet = 105462
Flit latency average = 15.5373
	minimum = 11
	maximum = 27
	95th percentile = 20.5
	99th percentile = 22.5
Slowest flit = 105462
Fragmentation average = 0
	minimum = 0
	maximum = 0
Injected packet rate average = 0.428897
	minimum = 0.423692 (at node 6)
	maximum = 0.433821 (at node 8)
Accepted packet rate average = 0.428701
	minimum = 0.423487 (at node 2)
	maximum = 0.433667 (at node 0)
Injected flit rate average = 0.428897
	minimum = 0.423692 (at node 6)
	maximum = 0.433821 (at node 8)
Accepted flit rate average= 0.428701
	minimum = 0.423487 (at node 2)
	maximum = 0.433667 (at node 0)
Injected packet length average = 1
Accepted packet length average = 1
Total in-flight flits = 80 (80 measured)
====== Peak Queue Occupancy Statistics (Absolute Max) ======
  Overall Max VC Occupancy = 1
  Overall Max Buffer Occupancy = 3
latency change    = 0.0031774
throughput change = 0.0336005
Class 0:
Packet latency average = 15.5738
	minimum = 11
	maximum = 27
	95th percentile = 20.5
	99th percentile = 22.5
Network latency average = 15.5738
	minimum = 11
	maximum = 27
	95th percentile = 20.5
	99th percentile = 22.5
Slowest packet = 105462
Flit latency average = 15.5737
	minimum = 11
	maximum = 27
	95th percentile = 20.5
	99th percentile = 22.5
Slowest flit = 105462
Fragmentation average = 0
	minimum = 0
	maximum = 0
Injected packet rate average = 0.440974
	minimum = 0.436429 (at node 6)
	maximum = 0.44631 (at node 8)
Accepted packet rate average = 0.44078
	minimum = 0.436048 (at node 2)
	maximum = 0.446024 (at node 0)
Injected flit rate average = 0.440974
	minimum = 0.436429 (at node 6)
	maximum = 0.44631 (at node 8)
Accepted flit rate average= 0.44078
	minimum = 0.436048 (at node 2)
	maximum = 0.446024 (at node 0)
Injected packet length average = 1
Accepted packet length average = 1
Total in-flight flits = 84 (84 measured)
====== Peak Queue Occupancy Statistics (Absolute Max) ======
  Overall Max VC Occupancy = 1
  Overall Max Buffer Occupancy = 3
latency change    = 0.00233733
throughput change = 0.027405
Draining all recorded packets ...
Draining remaining packets ...
Time taken is 48044 cycles
====== Overall Traffic Statistics ======
====== Traffic class 0 ======
Packet latency average = 15.5745 (1 samples)
	minimum = 11 (1 samples)
	maximum = 27 (1 samples)
Network latency average = 15.5745 (1 samples)
	minimum = 11 (1 samples)
	maximum = 27 (1 samples)
Flit latency average = 15.5747 (1 samples)
	minimum = 11 (1 samples)
	maximum = 27 (1 samples)
Fragmentation average = 0 (1 samples)
	minimum = 0 (1 samples)
	maximum = 0 (1 samples)
Injected packet rate average = 0.440974 (1 samples)
	minimum = 0.436429 (1 samples)
	maximum = 0.44631 (1 samples)
Accepted packet rate average = 0.44078 (1 samples)
	minimum = 0.436048 (1 samples)
	maximum = 0.446024 (1 samples)
Injected flit rate average = 0.440974 (1 samples)
	minimum = 0.436429 (1 samples)
	maximum = 0.44631 (1 samples)
Accepted flit rate average = 0.44078 (1 samples)
	minimum = 0.436048 (1 samples)
	maximum = 0.446024 (1 samples)
Injected packet size average = 1 (1 samples)
Accepted packet size average = 1 (1 samples)
Hops average = 4.11185 (1 samples)
Total run time 6.43983

