BEGIN Configuration File: D:\noc_huawei\noc\booksim2-noc_speedup_study\booksim2-noc_speedup_study\tests\data\results\fixed_perm_growth_models_perm_4_3_6_1_8_7_2_5_0_peak_0p6_current_defaults\tmp_configs\linear_scale_dim_order_s2202.config
num_vcs     = 48;
vc_buf_size = 16;
wait_for_tail_credit = 1;

vc_allocator = islip;
sw_allocator = islip;
alloc_iters  = 16;

credit_delay   = 2;
routing_delay  = 0;
vc_alloc_delay = 1;
sw_alloc_delay = 1;
st_final_delay = 1;

input_speedup     = 1;
output_speedup    = 1;
internal_speedup  = 2.0;

sim_type = latency;
latency_thres  = 100000.0;
sim_count      = 1;
queue_sample_period_cycles = 0;

topology = mesh;
k  = 3;
n  = 2;

hybrid_transition_mode = linear_prob;
hybrid_xy_low_threshold = 0.35;
hybrid_racke_high_threshold = 0.65;
hybrid_buffer_soft_threshold = 0.50;
hybrid_buffer_hard_threshold = 0.85;
hybrid_buffer_release_threshold = 0.35;
hybrid_rate_soft_threshold = 0.55;
hybrid_rate_hard_threshold = 0.90;
hybrid_rate_weight = 0.25;
hybrid_congestion_alpha = 0.25;
hybrid_racke_increase_step = 0.25;
hybrid_racke_decrease_step = 0.10;
hybrid_epoch_cycles = 200;
hybrid_hold_cycles = 600;
hybrid_enable_midflight_override = 1;
hybrid_feedback_delay_per_hop = 1;
hybrid_flow_increase_step = 0.20;
hybrid_flow_decrease_step = 0.08;
hybrid_flow_hard_threshold = 0.95;

packet_size = 1;


ordered_injection_coefficients = {0.1666666667,0.3333333333,0.5};
ordered_injection_phase_cycles = {1000,1000,1000};
ordered_injection_source_order = {4,0,7,2,8,1,5,3,6};
ordered_injection_flow_peak_rate = 0.60;
warmup_periods = 2;
custom_perm_array = {4,3,6,1,8,7,2,5,0};
injection_process = scheduled;
injection_rate = 0.6;
scheduled_default_phase_cycles = 3000;
perm_seed = 2202;
hybrid_flow_hotspot_alpha = 0.85;
hybrid_stats_window_cycles = 3000;
hybrid_flow_hotspot_threshold = 1.1;
sample_period = 3000;
scheduled_injection_rates = {0.05,0.1,0.15,0.2,0.25,0.3,0.35,0.4,0.45,0.5,0.55,0.6,0.6,0.6};
traffic = custom_perm;
routing_function = dim_order;
scheduled_phase_cycles = {3000,3000,3000,3000,3000,3000,3000,3000,3000,3000,3000,3000,3000,3000};
seed = 2202;
max_samples = 22;

END Configuration File: D:\noc_huawei\noc\booksim2-noc_speedup_study\booksim2-noc_speedup_study\tests\data\results\fixed_perm_growth_models_perm_4_3_6_1_8_7_2_5_0_peak_0p6_current_defaults\tmp_configs\linear_scale_dim_order_s2202.config
Class 0:
Packet latency average = 13.0007
	minimum = 11
	maximum = 18
	95th percentile = 17.5
	99th percentile = 17.5
Network latency average = 13.0007
	minimum = 11
	maximum = 18
	95th percentile = 17.5
	99th percentile = 17.5
Slowest packet = 115
Flit latency average = 13.0007
	minimum = 11
	maximum = 18
	95th percentile = 17.5
	99th percentile = 17.5
Slowest flit = 115
Fragmentation average = 0
	minimum = 0
	maximum = 0
Injected packet rate average = 0.0506296
	minimum = 0.046 (at node 2)
	maximum = 0.0553333 (at node 8)
Accepted packet rate average = 0.0504815
	minimum = 0.0456667 (at node 6)
	maximum = 0.0553333 (at node 0)
Injected flit rate average = 0.0506296
	minimum = 0.046 (at node 2)
	maximum = 0.0553333 (at node 8)
Accepted flit rate average= 0.0504815
	minimum = 0.0456667 (at node 6)
	maximum = 0.0553333 (at node 0)
Injected packet length average = 1
Accepted packet length average = 1
Total in-flight flits = 4 (0 measured)
====== Peak Queue Occupancy Statistics (Absolute Max) ======
  Overall Max VC Occupancy = 1
  Overall Max Buffer Occupancy = 2
latency change    = 1
throughput change = 1
Class 0:
Packet latency average = 12.9806
	minimum = 11
	maximum = 18
	95th percentile = 17.5
	99th percentile = 18.5
Network latency average = 12.9806
	minimum = 11
	maximum = 18
	95th percentile = 17.5
	99th percentile = 18.5
Slowest packet = 115
Flit latency average = 12.9806
	minimum = 11
	maximum = 18
	95th percentile = 17.5
	99th percentile = 18.5
Slowest flit = 115
Fragmentation average = 0
	minimum = 0
	maximum = 0
Injected packet rate average = 0.0744815
	minimum = 0.069 (at node 6)
	maximum = 0.0775 (at node 5)
Accepted packet rate average = 0.0742778
	minimum = 0.069 (at node 2)
	maximum = 0.0768333 (at node 7)
Injected flit rate average = 0.0744815
	minimum = 0.069 (at node 6)
	maximum = 0.0775 (at node 5)
Accepted flit rate average= 0.0742778
	minimum = 0.069 (at node 2)
	maximum = 0.0768333 (at node 7)
Injected packet length average = 1
Accepted packet length average = 1
Total in-flight flits = 11 (0 measured)
====== Peak Queue Occupancy Statistics (Absolute Max) ======
  Overall Max VC Occupancy = 1
  Overall Max Buffer Occupancy = 2
latency change    = 0.00155465
throughput change = 0.320369
Warmed up ...Time used is 6000 cycles
Class 0:
Packet latency average = 12.9973
	minimum = 11
	maximum = 19
	95th percentile = 17.5
	99th percentile = 18.5
Network latency average = 12.9973
	minimum = 11
	maximum = 19
	95th percentile = 17.5
	99th percentile = 18.5
Slowest packet = 6283
Flit latency average = 12.9948
	minimum = 11
	maximum = 19
	95th percentile = 17.5
	99th percentile = 18.5
Slowest flit = 6283
Fragmentation average = 0
	minimum = 0
	maximum = 0
Injected packet rate average = 0.149889
	minimum = 0.137667 (at node 2)
	maximum = 0.160333 (at node 5)
Accepted packet rate average = 0.149667
	minimum = 0.137333 (at node 6)
	maximum = 0.161 (at node 7)
Injected flit rate average = 0.149889
	minimum = 0.137667 (at node 2)
	maximum = 0.160333 (at node 5)
Accepted flit rate average= 0.149667
	minimum = 0.137333 (at node 6)
	maximum = 0.161 (at node 7)
Injected packet length average = 1
Accepted packet length average = 1
Total in-flight flits = 17 (17 measured)
====== Peak Queue Occupancy Statistics (Absolute Max) ======
  Overall Max VC Occupancy = 1
  Overall Max Buffer Occupancy = 2
latency change    = 0.00128619
throughput change = 0.503712
Class 0:
Packet latency average = 13.0382
	minimum = 11
	maximum = 19
	95th percentile = 17.5
	99th percentile = 18.5
Network latency average = 13.0382
	minimum = 11
	maximum = 19
	95th percentile = 17.5
	99th percentile = 18.5
Slowest packet = 6283
Flit latency average = 13.0371
	minimum = 11
	maximum = 19
	95th percentile = 17.5
	99th percentile = 18.5
Slowest flit = 6283
Fragmentation average = 0
	minimum = 0
	maximum = 0
Injected packet rate average = 0.176463
	minimum = 0.164333 (at node 2)
	maximum = 0.183667 (at node 6)
Accepted packet rate average = 0.176148
	minimum = 0.1635 (at node 6)
	maximum = 0.183167 (at node 1)
Injected flit rate average = 0.176463
	minimum = 0.164333 (at node 2)
	maximum = 0.183667 (at node 6)
Accepted flit rate average= 0.176148
	minimum = 0.1635 (at node 6)
	maximum = 0.183167 (at node 1)
Injected packet length average = 1
Accepted packet length average = 1
Total in-flight flits = 28 (28 measured)
====== Peak Queue Occupancy Statistics (Absolute Max) ======
  Overall Max VC Occupancy = 1
  Overall Max Buffer Occupancy = 2
latency change    = 0.0031397
throughput change = 0.150336
Class 0:
Packet latency average = 13.0494
	minimum = 11
	maximum = 21
	95th percentile = 17.5
	99th percentile = 18.5
Network latency average = 13.0494
	minimum = 11
	maximum = 21
	95th percentile = 17.5
	99th percentile = 18.5
Slowest packet = 17956
Flit latency average = 13.0487
	minimum = 11
	maximum = 21
	95th percentile = 17.5
	99th percentile = 18.5
Slowest flit = 17956
Fragmentation average = 0
	minimum = 0
	maximum = 0
Injected packet rate average = 0.201111
	minimum = 0.191222 (at node 2)
	maximum = 0.206444 (at node 3)
Accepted packet rate average = 0.200951
	minimum = 0.190889 (at node 6)
	maximum = 0.206667 (at node 1)
Injected flit rate average = 0.201111
	minimum = 0.191222 (at node 2)
	maximum = 0.206444 (at node 3)
Accepted flit rate average= 0.200951
	minimum = 0.190889 (at node 6)
	maximum = 0.206667 (at node 1)
Injected packet length average = 1
Accepted packet length average = 1
Total in-flight flits = 24 (24 measured)
====== Peak Queue Occupancy Statistics (Absolute Max) ======
  Overall Max VC Occupancy = 1
  Overall Max Buffer Occupancy = 2
latency change    = 0.000855235
throughput change = 0.123426
Class 0:
Packet latency average = 13.083
	minimum = 11
	maximum = 21
	95th percentile = 17.5
	99th percentile = 18.5
Network latency average = 13.083
	minimum = 11
	maximum = 21
	95th percentile = 17.5
	99th percentile = 18.5
Slowest packet = 17956
Flit latency average = 13.0826
	minimum = 11
	maximum = 21
	95th percentile = 17.5
	99th percentile = 18.5
Slowest flit = 17956
Fragmentation average = 0
	minimum = 0
	maximum = 0
Injected packet rate average = 0.226306
	minimum = 0.21725 (at node 2)
	maximum = 0.23425 (at node 7)
Accepted packet rate average = 0.22612
	minimum = 0.217083 (at node 6)
	maximum = 0.234167 (at node 5)
Injected flit rate average = 0.226306
	minimum = 0.21725 (at node 2)
	maximum = 0.23425 (at node 7)
Accepted flit rate average= 0.22612
	minimum = 0.217083 (at node 6)
	maximum = 0.234167 (at node 5)
Injected packet length average = 1
Accepted packet length average = 1
Total in-flight flits = 31 (31 measured)
====== Peak Queue Occupancy Statistics (Absolute Max) ======
  Overall Max VC Occupancy = 1
  Overall Max Buffer Occupancy = 2
latency change    = 0.00257066
throughput change = 0.111311
Class 0:
Packet latency average = 13.1243
	minimum = 11
	maximum = 21
	95th percentile = 18.5
	99th percentile = 19.5
Network latency average = 13.1243
	minimum = 11
	maximum = 21
	95th percentile = 18.5
	99th percentile = 19.5
Slowest packet = 17956
Flit latency average = 13.1239
	minimum = 11
	maximum = 21
	95th percentile = 18.5
	99th percentile = 19.5
Slowest flit = 17956
Fragmentation average = 0
	minimum = 0
	maximum = 0
Injected packet rate average = 0.250859
	minimum = 0.243933 (at node 2)
	maximum = 0.2578 (at node 7)
Accepted packet rate average = 0.25063
	minimum = 0.243733 (at node 6)
	maximum = 0.2574 (at node 5)
Injected flit rate average = 0.250859
	minimum = 0.243933 (at node 2)
	maximum = 0.2578 (at node 7)
Accepted flit rate average= 0.25063
	minimum = 0.243733 (at node 6)
	maximum = 0.2574 (at node 5)
Injected packet length average = 1
Accepted packet length average = 1
Total in-flight flits = 42 (42 measured)
====== Peak Queue Occupancy Statistics (Absolute Max) ======
  Overall Max VC Occupancy = 1
  Overall Max Buffer Occupancy = 2
latency change    = 0.00314396
throughput change = 0.0977907
Class 0:
Packet latency average = 13.1907
	minimum = 11
	maximum = 24
	95th percentile = 18.5
	99th percentile = 19.5
Network latency average = 13.1907
	minimum = 11
	maximum = 24
	95th percentile = 18.5
	99th percentile = 19.5
Slowest packet = 42353
Flit latency average = 13.1904
	minimum = 11
	maximum = 24
	95th percentile = 18.5
	99th percentile = 19.5
Slowest flit = 42353
Fragmentation average = 0
	minimum = 0
	maximum = 0
Injected packet rate average = 0.275938
	minimum = 0.269 (at node 2)
	maximum = 0.282056 (at node 7)
Accepted packet rate average = 0.275623
	minimum = 0.268444 (at node 6)
	maximum = 0.281833 (at node 5)
Injected flit rate average = 0.275938
	minimum = 0.269 (at node 2)
	maximum = 0.282056 (at node 7)
Accepted flit rate average= 0.275623
	minimum = 0.268444 (at node 6)
	maximum = 0.281833 (at node 5)
Injected packet length average = 1
Accepted packet length average = 1
Total in-flight flits = 62 (62 measured)
====== Peak Queue Occupancy Statistics (Absolute Max) ======
  Overall Max VC Occupancy = 1
  Overall Max Buffer Occupancy = 2
latency change    = 0.00503369
throughput change = 0.0906811
Class 0:
Packet latency average = 13.3993
	minimum = 11
	maximum = 33
	95th percentile = 18.5
	99th percentile = 22.5
Network latency average = 13.3993
	minimum = 11
	maximum = 33
	95th percentile = 18.5
	99th percentile = 22.5
Slowest packet = 55205
Flit latency average = 13.3991
	minimum = 11
	maximum = 33
	95th percentile = 18.5
	99th percentile = 22.5
Slowest flit = 55205
Fragmentation average = 0
	minimum = 0
	maximum = 0
Injected packet rate average = 0.301317
	minimum = 0.293857 (at node 2)
	maximum = 0.306905 (at node 7)
Accepted packet rate average = 0.301048
	minimum = 0.293429 (at node 6)
	maximum = 0.306619 (at node 5)
Injected flit rate average = 0.301317
	minimum = 0.293857 (at node 2)
	maximum = 0.306905 (at node 7)
Accepted flit rate average= 0.301048
	minimum = 0.293429 (at node 6)
	maximum = 0.306619 (at node 5)
Injected packet length average = 1
Accepted packet length average = 1
Total in-flight flits = 62 (62 measured)
====== Peak Queue Occupancy Statistics (Absolute Max) ======
  Overall Max VC Occupancy = 1
  Overall Max Buffer Occupancy = 2
latency change    = 0.0155724
throughput change = 0.0844523
Class 0:
Packet latency average = 15.2459
	minimum = 11
	maximum = 97
	95th percentile = 27.5
	99th percentile = 61.5
Network latency average = 15.2459
	minimum = 11
	maximum = 97
	95th percentile = 27.5
	99th percentile = 61.5
Slowest packet = 72101
Flit latency average = 15.2454
	minimum = 11
	maximum = 97
	95th percentile = 27.5
	99th percentile = 61.5
Slowest flit = 72101
Fragmentation average = 0
	minimum = 0
	maximum = 0
Injected packet rate average = 0.325671
	minimum = 0.318917 (at node 2)
	maximum = 0.330875 (at node 7)
Accepted packet rate average = 0.325208
	minimum = 0.318375 (at node 6)
	maximum = 0.330208 (at node 1)
Injected flit rate average = 0.325671
	minimum = 0.318917 (at node 2)
	maximum = 0.330875 (at node 7)
Accepted flit rate average= 0.325208
	minimum = 0.318375 (at node 6)
	maximum = 0.330208 (at node 1)
Injected packet length average = 1
Accepted packet length average = 1
Total in-flight flits = 111 (111 measured)
====== Peak Queue Occupancy Statistics (Absolute Max) ======
  Overall Max VC Occupancy = 1
  Overall Max Buffer Occupancy = 18
latency change    = 0.121118
throughput change = 0.074293
Class 0:
Packet latency average = 25.1879
	minimum = 11
	maximum = 1780
	95th percentile = 69.5
	99th percentile = 261.5
Network latency average = 22.8665
	minimum = 11
	maximum = 1780
	95th percentile = 62.5
	99th percentile = 182.5
Slowest packet = 78990
Flit latency average = 22.8651
	minimum = 11
	maximum = 1780
	95th percentile = 62.5
	99th percentile = 182.5
Slowest flit = 78990
Fragmentation average = 0
	minimum = 0
	maximum = 0
Injected packet rate average = 0.349235
	minimum = 0.337222 (at node 2)
	maximum = 0.354259 (at node 3)
Accepted packet rate average = 0.347658
	minimum = 0.332926 (at node 6)
	maximum = 0.354259 (at node 1)
Injected flit rate average = 0.349235
	minimum = 0.337222 (at node 2)
	maximum = 0.354259 (at node 3)
Accepted flit rate average= 0.347658
	minimum = 0.332926 (at node 6)
	maximum = 0.354259 (at node 1)
Injected packet length average = 1
Accepted packet length average = 1
Total in-flight flits = 395 (395 measured)
====== Peak Queue Occupancy Statistics (Absolute Max) ======
  Overall Max VC Occupancy = 1
  Overall Max Buffer Occupancy = 48
latency change    = 0.394715
throughput change = 0.0645752
Class 0:
Packet latency average = 57.0018
	minimum = 11
	maximum = 2326
	95th percentile = 349.5
	99th percentile = 771.5
Network latency average = 31.9918
	minimum = 11
	maximum = 2272
	95th percentile = 107.5
	99th percentile = 302.5
Slowest packet = 85044
Flit latency average = 31.9896
	minimum = 11
	maximum = 2272
	95th percentile = 107.5
	99th percentile = 302.5
Slowest flit = 85044
Fragmentation average = 0
	minimum = 0
	maximum = 0
Injected packet rate average = 0.369989
	minimum = 0.359167 (at node 2)
	maximum = 0.3786 (at node 4)
Accepted packet rate average = 0.368474
	minimum = 0.355233 (at node 6)
	maximum = 0.3784 (at node 8)
Injected flit rate average = 0.369989
	minimum = 0.359167 (at node 2)
	maximum = 0.3786 (at node 4)
Accepted flit rate average= 0.368474
	minimum = 0.355233 (at node 6)
	maximum = 0.3784 (at node 8)
Injected packet length average = 1
Accepted packet length average = 1
Total in-flight flits = 420 (420 measured)
====== Peak Queue Occupancy Statistics (Absolute Max) ======
  Overall Max VC Occupancy = 1
  Overall Max Buffer Occupancy = 48
latency change    = 0.558121
throughput change = 0.0564915
Class 0:
Packet latency average = 104.953
	minimum = 11
	maximum = 2826
	95th percentile = 800.5
	99th percentile = 999.5
Network latency average = 38.8238
	minimum = 11
	maximum = 2272
	95th percentile = 143.5
	99th percentile = 383.5
Slowest packet = 85044
Flit latency average = 38.8212
	minimum = 11
	maximum = 2272
	95th percentile = 143.5
	99th percentile = 383.5
Slowest flit = 85044
Fragmentation average = 0
	minimum = 0
	maximum = 0
Injected packet rate average = 0.386882
	minimum = 0.367606 (at node 2)
	maximum = 0.398333 (at node 4)
Accepted packet rate average = 0.385525
	minimum = 0.363879 (at node 6)
	maximum = 0.398152 (at node 8)
Injected flit rate average = 0.386882
	minimum = 0.367606 (at node 2)
	maximum = 0.398333 (at node 4)
Accepted flit rate average= 0.385525
	minimum = 0.363879 (at node 6)
	maximum = 0.398152 (at node 8)
Injected packet length average = 1
Accepted packet length average = 1
Total in-flight flits = 415 (415 measured)
====== Peak Queue Occupancy Statistics (Absolute Max) ======
  Overall Max VC Occupancy = 1
  Overall Max Buffer Occupancy = 48
latency change    = 0.456883
throughput change = 0.0442284
Class 0:
Packet latency average = 164.805
	minimum = 11
	maximum = 3317
	95th percentile = 999.5
	99th percentile = 999.5
Network latency average = 44.0485
	minimum = 11
	maximum = 2272
	95th percentile = 169.5
	99th percentile = 435.5
Slowest packet = 85044
Flit latency average = 44.0457
	minimum = 11
	maximum = 2272
	95th percentile = 169.5
	99th percentile = 435.5
Slowest flit = 85044
Fragmentation average = 0
	minimum = 0
	maximum = 0
Injected packet rate average = 0.400864
	minimum = 0.378583 (at node 2)
	maximum = 0.415083 (at node 3)
Accepted packet rate average = 0.399611
	minimum = 0.375389 (at node 6)
	maximum = 0.414944 (at node 7)
Injected flit rate average = 0.400864
	minimum = 0.378583 (at node 2)
	maximum = 0.415083 (at node 3)
Accepted flit rate average= 0.399611
	minimum = 0.375389 (at node 6)
	maximum = 0.414944 (at node 7)
Injected packet length average = 1
Accepted packet length average = 1
Total in-flight flits = 420 (420 measured)
====== Peak Queue Occupancy Statistics (Absolute Max) ======
  Overall Max VC Occupancy = 1
  Overall Max Buffer Occupancy = 48
latency change    = 0.36317
throughput change = 0.0352489
Class 0:
Packet latency average = 233.878
	minimum = 11
	maximum = 3975
	95th percentile = 999.5
	99th percentile = 999.5
Network latency average = 48.1902
	minimum = 11
	maximum = 2272
	95th percentile = 187.5
	99th percentile = 495.5
Slowest packet = 85044
Flit latency average = 48.1875
	minimum = 11
	maximum = 2272
	95th percentile = 187.5
	99th percentile = 495.5
Slowest flit = 85044
Fragmentation average = 0
	minimum = 0
	maximum = 0
Injected packet rate average = 0.412561
	minimum = 0.391769 (at node 2)
	maximum = 0.429436 (at node 3)
Accepted packet rate average = 0.411393
	minimum = 0.388744 (at node 6)
	maximum = 0.429308 (at node 1)
Injected flit rate average = 0.412561
	minimum = 0.391769 (at node 2)
	maximum = 0.429436 (at node 3)
Accepted flit rate average= 0.411393
	minimum = 0.388744 (at node 6)
	maximum = 0.429308 (at node 1)
Injected packet length average = 1
Accepted packet length average = 1
Total in-flight flits = 424 (424 measured)
====== Peak Queue Occupancy Statistics (Absolute Max) ======
  Overall Max VC Occupancy = 1
  Overall Max Buffer Occupancy = 48
latency change    = 0.295334
throughput change = 0.0286394
Class 0:
Packet latency average = 308.476
	minimum = 11
	maximum = 4355
	95th percentile = 999.5
	99th percentile = 999.5
Network latency average = 51.5876
	minimum = 11
	maximum = 2272
	95th percentile = 191.5
	99th percentile = 528.5
Slowest packet = 85044
Flit latency average = 51.5849
	minimum = 11
	maximum = 2272
	95th percentile = 191.5
	99th percentile = 528.5
Slowest flit = 85044
Fragmentation average = 0
	minimum = 0
	maximum = 0
Injected packet rate average = 0.422738
	minimum = 0.395619 (at node 2)
	maximum = 0.441429 (at node 4)
Accepted packet rate average = 0.42164
	minimum = 0.392762 (at node 6)
	maximum = 0.441262 (at node 8)
Injected flit rate average = 0.422738
	minimum = 0.395619 (at node 2)
	maximum = 0.441429 (at node 4)
Accepted flit rate average= 0.42164
	minimum = 0.392762 (at node 6)
	maximum = 0.441262 (at node 8)
Injected packet length average = 1
Accepted packet length average = 1
Total in-flight flits = 428 (428 measured)
====== Peak Queue Occupancy Statistics (Absolute Max) ======
  Overall Max VC Occupancy = 1
  Overall Max Buffer Occupancy = 48
latency change    = 0.24183
throughput change = 0.0243028
Class 0:
Packet latency average = 388.188
	minimum = 11
	maximum = 4682
	95th percentile = 999.5
	99th percentile = 999.5
Network latency average = 54.334
	minimum = 11
	maximum = 2272
	95th percentile = 202.5
	99th percentile = 609.5
Slowest packet = 85044
Flit latency average = 54.3314
	minimum = 11
	maximum = 2272
	95th percentile = 202.5
	99th percentile = 609.5
Slowest flit = 85044
Fragmentation average = 0
	minimum = 0
	maximum = 0
Injected packet rate average = 0.431699
	minimum = 0.403489 (at node 2)
	maximum = 0.451844 (at node 4)
Accepted packet rate average = 0.430699
	minimum = 0.401067 (at node 6)
	maximum = 0.451756 (at node 8)
Injected flit rate average = 0.431699
	minimum = 0.403489 (at node 2)
	maximum = 0.451844 (at node 4)
Accepted flit rate average= 0.430699
	minimum = 0.401067 (at node 6)
	maximum = 0.451756 (at node 8)
Injected packet length average = 1
Accepted packet length average = 1
Total in-flight flits = 419 (419 measured)
====== Peak Queue Occupancy Statistics (Absolute Max) ======
  Overall Max VC Occupancy = 1
  Overall Max Buffer Occupancy = 48
latency change    = 0.205343
throughput change = 0.0210322
Class 0:
Packet latency average = 471.697
	minimum = 11
	maximum = 5523
	95th percentile = 999.5
	99th percentile = 999.5
Network latency average = 56.6743
	minimum = 11
	maximum = 2272
	95th percentile = 209.5
	99th percentile = 631.5
Slowest packet = 85044
Flit latency average = 56.6717
	minimum = 11
	maximum = 2272
	95th percentile = 209.5
	99th percentile = 631.5
Slowest flit = 85044
Fragmentation average = 0
	minimum = 0
	maximum = 0
Injected packet rate average = 0.439387
	minimum = 0.412125 (at node 2)
	maximum = 0.461604 (at node 3)
Accepted packet rate average = 0.438431
	minimum = 0.409646 (at node 6)
	maximum = 0.461521 (at node 1)
Injected flit rate average = 0.439387
	minimum = 0.412125 (at node 2)
	maximum = 0.461604 (at node 3)
Accepted flit rate average= 0.438431
	minimum = 0.409646 (at node 6)
	maximum = 0.461521 (at node 1)
Injected packet length average = 1
Accepted packet length average = 1
Total in-flight flits = 424 (424 measured)
====== Peak Queue Occupancy Statistics (Absolute Max) ======
  Overall Max VC Occupancy = 1
  Overall Max Buffer Occupancy = 48
latency change    = 0.177039
throughput change = 0.0176352
Class 0:
Packet latency average = 556.091
	minimum = 11
	maximum = 5802
	95th percentile = 999.5
	99th percentile = 999.5
Network latency average = 58.698
	minimum = 11
	maximum = 2272
	95th percentile = 216.5
	99th percentile = 631.5
Slowest packet = 85044
Flit latency average = 58.6955
	minimum = 11
	maximum = 2272
	95th percentile = 216.5
	99th percentile = 631.5
Slowest flit = 85044
Fragmentation average = 0
	minimum = 0
	maximum = 0
Injected packet rate average = 0.446194
	minimum = 0.413863 (at node 2)
	maximum = 0.469549 (at node 5)
Accepted packet rate average = 0.445305
	minimum = 0.41151 (at node 6)
	maximum = 0.46949 (at node 7)
Injected flit rate average = 0.446194
	minimum = 0.413863 (at node 2)
	maximum = 0.469549 (at node 5)
Accepted flit rate average= 0.445305
	minimum = 0.41151 (at node 6)
	maximum = 0.46949 (at node 7)
Injected packet length average = 1
Accepted packet length average = 1
Total in-flight flits = 420 (420 measured)
====== Peak Queue Occupancy Statistics (Absolute Max) ======
  Overall Max VC Occupancy = 1
  Overall Max Buffer Occupancy = 48
latency change    = 0.151762
throughput change = 0.0154376
Class 0:
Packet latency average = 642.574
	minimum = 11
	maximum = 6296
	95th percentile = 999.5
	99th percentile = 999.5
Network latency average = 60.3891
	minimum = 11
	maximum = 2272
	95th percentile = 222.5
	99th percentile = 645.5
Slowest packet = 85044
Flit latency average = 60.3867
	minimum = 11
	maximum = 2272
	95th percentile = 222.5
	99th percentile = 645.5
Slowest flit = 85044
Fragmentation average = 0
	minimum = 0
	maximum = 0
Injected packet rate average = 0.452457
	minimum = 0.420352 (at node 2)
	maximum = 0.47737 (at node 5)
Accepted packet rate average = 0.451597
	minimum = 0.418315 (at node 6)
	maximum = 0.477278 (at node 7)
Injected flit rate average = 0.452457
	minimum = 0.420352 (at node 2)
	maximum = 0.47737 (at node 5)
Accepted flit rate average= 0.451597
	minimum = 0.418315 (at node 6)
	maximum = 0.477278 (at node 7)
Injected packet length average = 1
Accepted packet length average = 1
Total in-flight flits = 431 (431 measured)
====== Peak Queue Occupancy Statistics (Absolute Max) ======
  Overall Max VC Occupancy = 1
  Overall Max Buffer Occupancy = 48
latency change    = 0.134589
throughput change = 0.0139321
Class 0:
Packet latency average = 729.85
	minimum = 11
	maximum = 6908
	95th percentile = 999.5
	99th percentile = 999.5
Network latency average = 61.8918
	minimum = 11
	maximum = 2272
	95th percentile = 225.5
	99th percentile = 660.5
Slowest packet = 85044
Flit latency average = 61.8895
	minimum = 11
	maximum = 2272
	95th percentile = 225.5
	99th percentile = 660.5
Slowest flit = 85044
Fragmentation average = 0
	minimum = 0
	maximum = 0
Injected packet rate average = 0.457832
	minimum = 0.425789 (at node 2)
	maximum = 0.483772 (at node 5)
Accepted packet rate average = 0.457025
	minimum = 0.423632 (at node 6)
	maximum = 0.483684 (at node 7)
Injected flit rate average = 0.457832
	minimum = 0.425789 (at node 2)
	maximum = 0.483772 (at node 5)
Accepted flit rate average= 0.457025
	minimum = 0.423632 (at node 6)
	maximum = 0.483684 (at node 7)
Injected packet length average = 1
Accepted packet length average = 1
Total in-flight flits = 428 (428 measured)
====== Peak Queue Occupancy Statistics (Absolute Max) ======
  Overall Max VC Occupancy = 1
  Overall Max Buffer Occupancy = 48
latency change    = 0.119581
throughput change = 0.0118782
Class 0:
Packet latency average = 817.854
	minimum = 11
	maximum = 7456
	95th percentile = 999.5
	99th percentile = 999.5
Network latency average = 63.23
	minimum = 11
	maximum = 2272
	95th percentile = 229.5
	99th percentile = 668.5
Slowest packet = 85044
Flit latency average = 63.2278
	minimum = 11
	maximum = 2272
	95th percentile = 229.5
	99th percentile = 668.5
Slowest flit = 85044
Fragmentation average = 0
	minimum = 0
	maximum = 0
Injected packet rate average = 0.462709
	minimum = 0.426683 (at node 2)
	maximum = 0.489517 (at node 3)
Accepted packet rate average = 0.461956
	minimum = 0.4247 (at node 6)
	maximum = 0.489483 (at node 1)
Injected flit rate average = 0.462709
	minimum = 0.426683 (at node 2)
	maximum = 0.489517 (at node 3)
Accepted flit rate average= 0.461956
	minimum = 0.4247 (at node 6)
	maximum = 0.489483 (at node 1)
Injected packet length average = 1
Accepted packet length average = 1
Total in-flight flits = 422 (422 measured)
====== Peak Queue Occupancy Statistics (Absolute Max) ======
  Overall Max VC Occupancy = 1
  Overall Max Buffer Occupancy = 48
latency change    = 0.107604
throughput change = 0.0106725
Draining all recorded packets ...
Class 0:
Remaining flits: 250010 250952 251208 251432 251672 251899 252138 252233 252374 252605 [...] (423 flits)
Measured flits: 250010 250952 251208 251432 251672 251899 252138 252233 252374 252605 [...] (385 flits)
Class 0:
Remaining flits: 255706 255950 256177 256418 256634 256654 256901 257136 257378 257616 [...] (426 flits)
Measured flits: 255706 255950 256177 256418 256634 256654 256901 257136 257378 257616 [...] (385 flits)
Class 0:
Remaining flits: 260552 260791 261044 261280 261510 261753 261920 261992 262227 262496 [...] (423 flits)
Measured flits: 260552 260791 261044 261280 261510 261753 261920 261992 262227 262496 [...] (386 flits)
Class 0:
Remaining flits: 265082 265317 265645 265979 266116 266349 266739 266834 267223 267608 [...] (425 flits)
Measured flits: 265082 265317 265645 265979 266116 266349 266739 266834 267223 267608 [...] (385 flits)
Class 0:
Remaining flits: 269581 270542 270787 270834 271074 271279 271285 271532 272123 272350 [...] (421 flits)
Measured flits: 269581 270542 270787 270834 271074 271279 271285 271532 272123 272350 [...] (388 flits)
Class 0:
Remaining flits: 275735 275986 276218 276450 276683 276927 277156 277387 277635 277709 [...] (420 flits)
Measured flits: 275735 275986 276218 276450 276683 276927 277156 277387 277635 277709 [...] (384 flits)
Class 0:
Remaining flits: 280794 281035 281266 281504 281734 281973 282218 282466 282713 282946 [...] (418 flits)
Measured flits: 280794 281035 281266 281504 281734 281973 282218 282466 282713 282946 [...] (70 flits)
Class 0:
Remaining flits: 285473 285638 285928 285980 286338 286343 286511 287189 287385 287673 [...] (425 flits)
Measured flits: 285473 285638 285928 285980 286338 286343 286511 (7 flits)
Draining remaining packets ...
Time taken is 74582 cycles
====== Overall Traffic Statistics ======
====== Traffic class 0 ======
Packet latency average = 1100.45 (1 samples)
	minimum = 11 (1 samples)
	maximum = 8463 (1 samples)
Network latency average = 70.277 (1 samples)
	minimum = 11 (1 samples)
	maximum = 2272 (1 samples)
Flit latency average = 66.5245 (1 samples)
	minimum = 11 (1 samples)
	maximum = 2272 (1 samples)
Fragmentation average = 0 (1 samples)
	minimum = 0 (1 samples)
	maximum = 0 (1 samples)
Injected packet rate average = 0.462709 (1 samples)
	minimum = 0.426683 (1 samples)
	maximum = 0.489517 (1 samples)
Accepted packet rate average = 0.461956 (1 samples)
	minimum = 0.4247 (1 samples)
	maximum = 0.489483 (1 samples)
Injected flit rate average = 0.462709 (1 samples)
	minimum = 0.426683 (1 samples)
	maximum = 0.489517 (1 samples)
Accepted flit rate average = 0.461956 (1 samples)
	minimum = 0.4247 (1 samples)
	maximum = 0.489483 (1 samples)
Injected packet size average = 1 (1 samples)
Accepted packet size average = 1 (1 samples)
Hops average = 3.66413 (1 samples)
Total run time 27.0458

