BEGIN Configuration File: D:\noc_huawei\noc\booksim2-noc_speedup_study\booksim2-noc_speedup_study\tests\data\results\fixed_perm_growth_models_perm_4_3_6_1_8_7_2_5_0_peak_0p6_current_defaults\tmp_configs\linear_scale_hybrid_xy_racke_s2204.config
num_vcs     = 48;
vc_buf_size = 16;
wait_for_tail_credit = 1;

vc_allocator = islip;
sw_allocator = islip;
alloc_iters  = 16;

credit_delay   = 2;
routing_delay  = 0;
vc_alloc_delay = 1;
sw_alloc_delay = 1;
st_final_delay = 1;

input_speedup     = 1;
output_speedup    = 1;
internal_speedup  = 2.0;

sim_type = latency;
latency_thres  = 100000.0;
sim_count      = 1;
queue_sample_period_cycles = 0;

topology = mesh;
k  = 3;
n  = 2;

hybrid_transition_mode = linear_prob;
hybrid_xy_low_threshold = 0.35;
hybrid_racke_high_threshold = 0.65;
hybrid_buffer_soft_threshold = 0.50;
hybrid_buffer_hard_threshold = 0.85;
hybrid_buffer_release_threshold = 0.35;
hybrid_rate_soft_threshold = 0.55;
hybrid_rate_hard_threshold = 0.90;
hybrid_rate_weight = 0.25;
hybrid_congestion_alpha = 0.25;
hybrid_racke_increase_step = 0.25;
hybrid_racke_decrease_step = 0.10;
hybrid_epoch_cycles = 200;
hybrid_hold_cycles = 600;
hybrid_enable_midflight_override = 1;
hybrid_feedback_delay_per_hop = 1;
hybrid_flow_increase_step = 0.20;
hybrid_flow_decrease_step = 0.08;
hybrid_flow_hard_threshold = 0.95;

packet_size = 1;


ordered_injection_coefficients = {0.1666666667,0.3333333333,0.5};
ordered_injection_phase_cycles = {1000,1000,1000};
ordered_injection_source_order = {4,0,7,2,8,1,5,3,6};
ordered_injection_flow_peak_rate = 0.60;
warmup_periods = 2;
custom_perm_array = {4,3,6,1,8,7,2,5,0};
injection_process = scheduled;
injection_rate = 0.6;
scheduled_default_phase_cycles = 3000;
perm_seed = 2204;
hybrid_flow_hotspot_alpha = 0.85;
hybrid_stats_window_cycles = 3000;
hybrid_flow_hotspot_threshold = 1.1;
sample_period = 3000;
scheduled_injection_rates = {0.05,0.1,0.15,0.2,0.25,0.3,0.35,0.4,0.45,0.5,0.55,0.6,0.6,0.6};
traffic = custom_perm;
routing_function = hybrid_xy_racke;
scheduled_phase_cycles = {3000,3000,3000,3000,3000,3000,3000,3000,3000,3000,3000,3000,3000,3000};
seed = 2204;
max_samples = 22;

END Configuration File: D:\noc_huawei\noc\booksim2-noc_speedup_study\booksim2-noc_speedup_study\tests\data\results\fixed_perm_growth_models_perm_4_3_6_1_8_7_2_5_0_peak_0p6_current_defaults\tmp_configs\linear_scale_hybrid_xy_racke_s2204.config
Class 0:
Packet latency average = 12.9896
	minimum = 11
	maximum = 18
	95th percentile = 17.5
	99th percentile = 17.5
Network latency average = 12.9896
	minimum = 11
	maximum = 18
	95th percentile = 17.5
	99th percentile = 17.5
Slowest packet = 70
Flit latency average = 12.9896
	minimum = 11
	maximum = 18
	95th percentile = 17.5
	99th percentile = 17.5
Slowest flit = 70
Fragmentation average = 0
	minimum = 0
	maximum = 0
Injected packet rate average = 0.0500741
	minimum = 0.043 (at node 1)
	maximum = 0.0553333 (at node 0)
Accepted packet rate average = 0.0497037
	minimum = 0.0426667 (at node 3)
	maximum = 0.055 (at node 4)
Injected flit rate average = 0.0500741
	minimum = 0.043 (at node 1)
	maximum = 0.0553333 (at node 0)
Accepted flit rate average= 0.0497037
	minimum = 0.0426667 (at node 3)
	maximum = 0.055 (at node 4)
Injected packet length average = 1
Accepted packet length average = 1
Total in-flight flits = 10 (0 measured)
====== Peak Queue Occupancy Statistics (Absolute Max) ======
  Overall Max VC Occupancy = 1
  Overall Max Buffer Occupancy = 1
latency change    = 1
throughput change = 1
Class 0:
Packet latency average = 12.993
	minimum = 11
	maximum = 18
	95th percentile = 17.5
	99th percentile = 18.5
Network latency average = 12.993
	minimum = 11
	maximum = 18
	95th percentile = 17.5
	99th percentile = 18.5
Slowest packet = 70
Flit latency average = 12.993
	minimum = 11
	maximum = 18
	95th percentile = 17.5
	99th percentile = 18.5
Slowest flit = 70
Fragmentation average = 0
	minimum = 0
	maximum = 0
Injected packet rate average = 0.0766111
	minimum = 0.0706667 (at node 1)
	maximum = 0.0818333 (at node 0)
Accepted packet rate average = 0.0763333
	minimum = 0.0705 (at node 3)
	maximum = 0.0816667 (at node 4)
Injected flit rate average = 0.0766111
	minimum = 0.0706667 (at node 1)
	maximum = 0.0818333 (at node 0)
Accepted flit rate average= 0.0763333
	minimum = 0.0705 (at node 3)
	maximum = 0.0816667 (at node 4)
Injected packet length average = 1
Accepted packet length average = 1
Total in-flight flits = 15 (0 measured)
====== Peak Queue Occupancy Statistics (Absolute Max) ======
  Overall Max VC Occupancy = 1
  Overall Max Buffer Occupancy = 2
latency change    = 0.000261432
throughput change = 0.34886
Warmed up ...Time used is 6000 cycles
Class 0:
Packet latency average = 13.026
	minimum = 11
	maximum = 19
	95th percentile = 17.5
	99th percentile = 18.5
Network latency average = 13.026
	minimum = 11
	maximum = 19
	95th percentile = 17.5
	99th percentile = 18.5
Slowest packet = 5558
Flit latency average = 13.0318
	minimum = 11
	maximum = 19
	95th percentile = 17.5
	99th percentile = 18.5
Slowest flit = 5558
Fragmentation average = 0
	minimum = 0
	maximum = 0
Injected packet rate average = 0.150333
	minimum = 0.140667 (at node 4)
	maximum = 0.167333 (at node 1)
Accepted packet rate average = 0.150259
	minimum = 0.140667 (at node 8)
	maximum = 0.167 (at node 3)
Injected flit rate average = 0.150333
	minimum = 0.140667 (at node 4)
	maximum = 0.167333 (at node 1)
Accepted flit rate average= 0.150259
	minimum = 0.140667 (at node 8)
	maximum = 0.167 (at node 3)
Injected packet length average = 1
Accepted packet length average = 1
Total in-flight flits = 17 (17 measured)
====== Peak Queue Occupancy Statistics (Absolute Max) ======
  Overall Max VC Occupancy = 1
  Overall Max Buffer Occupancy = 2
latency change    = 0.00253437
throughput change = 0.491989
Class 0:
Packet latency average = 13.0487
	minimum = 11
	maximum = 19
	95th percentile = 17.5
	99th percentile = 18.5
Network latency average = 13.0487
	minimum = 11
	maximum = 19
	95th percentile = 17.5
	99th percentile = 18.5
Slowest packet = 5558
Flit latency average = 13.0511
	minimum = 11
	maximum = 19
	95th percentile = 17.5
	99th percentile = 18.5
Slowest flit = 5558
Fragmentation average = 0
	minimum = 0
	maximum = 0
Injected packet rate average = 0.173685
	minimum = 0.171 (at node 3)
	maximum = 0.179 (at node 1)
Accepted packet rate average = 0.173444
	minimum = 0.170833 (at node 1)
	maximum = 0.1785 (at node 3)
Injected flit rate average = 0.173685
	minimum = 0.171 (at node 3)
	maximum = 0.179 (at node 1)
Accepted flit rate average= 0.173444
	minimum = 0.170833 (at node 1)
	maximum = 0.1785 (at node 3)
Injected packet length average = 1
Accepted packet length average = 1
Total in-flight flits = 28 (28 measured)
====== Peak Queue Occupancy Statistics (Absolute Max) ======
  Overall Max VC Occupancy = 1
  Overall Max Buffer Occupancy = 2
latency change    = 0.00173816
throughput change = 0.133675
Class 0:
Packet latency average = 13.0898
	minimum = 11
	maximum = 20
	95th percentile = 17.5
	99th percentile = 18.5
Network latency average = 13.0898
	minimum = 11
	maximum = 20
	95th percentile = 17.5
	99th percentile = 18.5
Slowest packet = 16714
Flit latency average = 13.0912
	minimum = 11
	maximum = 20
	95th percentile = 17.5
	99th percentile = 18.5
Slowest flit = 16714
Fragmentation average = 0
	minimum = 0
	maximum = 0
Injected packet rate average = 0.198617
	minimum = 0.194444 (at node 4)
	maximum = 0.201778 (at node 6)
Accepted packet rate average = 0.198519
	minimum = 0.194444 (at node 8)
	maximum = 0.201778 (at node 2)
Injected flit rate average = 0.198617
	minimum = 0.194444 (at node 4)
	maximum = 0.201778 (at node 6)
Accepted flit rate average= 0.198519
	minimum = 0.194444 (at node 8)
	maximum = 0.201778 (at node 2)
Injected packet length average = 1
Accepted packet length average = 1
Total in-flight flits = 23 (23 measured)
====== Peak Queue Occupancy Statistics (Absolute Max) ======
  Overall Max VC Occupancy = 1
  Overall Max Buffer Occupancy = 2
latency change    = 0.00314479
throughput change = 0.126306
Class 0:
Packet latency average = 13.13
	minimum = 11
	maximum = 21
	95th percentile = 17.5
	99th percentile = 18.5
Network latency average = 13.13
	minimum = 11
	maximum = 21
	95th percentile = 17.5
	99th percentile = 18.5
Slowest packet = 22598
Flit latency average = 13.1309
	minimum = 11
	maximum = 21
	95th percentile = 17.5
	99th percentile = 18.5
Slowest flit = 22598
Fragmentation average = 0
	minimum = 0
	maximum = 0
Injected packet rate average = 0.223759
	minimum = 0.218833 (at node 4)
	maximum = 0.229583 (at node 2)
Accepted packet rate average = 0.223509
	minimum = 0.218667 (at node 8)
	maximum = 0.229083 (at node 6)
Injected flit rate average = 0.223759
	minimum = 0.218833 (at node 4)
	maximum = 0.229583 (at node 2)
Accepted flit rate average= 0.223509
	minimum = 0.218667 (at node 8)
	maximum = 0.229083 (at node 6)
Injected packet length average = 1
Accepted packet length average = 1
Total in-flight flits = 42 (42 measured)
====== Peak Queue Occupancy Statistics (Absolute Max) ======
  Overall Max VC Occupancy = 1
  Overall Max Buffer Occupancy = 2
latency change    = 0.00306274
throughput change = 0.111811
Class 0:
Packet latency average = 13.1598
	minimum = 11
	maximum = 21
	95th percentile = 18.5
	99th percentile = 19.5
Network latency average = 13.1598
	minimum = 11
	maximum = 21
	95th percentile = 18.5
	99th percentile = 19.5
Slowest packet = 22598
Flit latency average = 13.1605
	minimum = 11
	maximum = 21
	95th percentile = 18.5
	99th percentile = 19.5
Slowest flit = 22598
Fragmentation average = 0
	minimum = 0
	maximum = 0
Injected packet rate average = 0.249496
	minimum = 0.2464 (at node 8)
	maximum = 0.254067 (at node 2)
Accepted packet rate average = 0.249326
	minimum = 0.246267 (at node 0)
	maximum = 0.253867 (at node 6)
Injected flit rate average = 0.249496
	minimum = 0.2464 (at node 8)
	maximum = 0.254067 (at node 2)
Accepted flit rate average= 0.249326
	minimum = 0.246267 (at node 0)
	maximum = 0.253867 (at node 6)
Injected packet length average = 1
Accepted packet length average = 1
Total in-flight flits = 38 (38 measured)
====== Peak Queue Occupancy Statistics (Absolute Max) ======
  Overall Max VC Occupancy = 1
  Overall Max Buffer Occupancy = 2
latency change    = 0.00226325
throughput change = 0.103546
Class 0:
Packet latency average = 13.2338
	minimum = 11
	maximum = 23
	95th percentile = 18.5
	99th percentile = 19.5
Network latency average = 13.2338
	minimum = 11
	maximum = 23
	95th percentile = 18.5
	99th percentile = 19.5
Slowest packet = 41006
Flit latency average = 13.2343
	minimum = 11
	maximum = 23
	95th percentile = 18.5
	99th percentile = 19.5
Slowest flit = 41006
Fragmentation average = 0
	minimum = 0
	maximum = 0
Injected packet rate average = 0.274401
	minimum = 0.268722 (at node 0)
	maximum = 0.279111 (at node 6)
Accepted packet rate average = 0.274198
	minimum = 0.268556 (at node 4)
	maximum = 0.278944 (at node 2)
Injected flit rate average = 0.274401
	minimum = 0.268722 (at node 0)
	maximum = 0.279111 (at node 6)
Accepted flit rate average= 0.274198
	minimum = 0.268556 (at node 4)
	maximum = 0.278944 (at node 2)
Injected packet length average = 1
Accepted packet length average = 1
Total in-flight flits = 48 (48 measured)
====== Peak Queue Occupancy Statistics (Absolute Max) ======
  Overall Max VC Occupancy = 1
  Overall Max Buffer Occupancy = 2
latency change    = 0.00559377
throughput change = 0.0907069
Class 0:
Packet latency average = 13.4059
	minimum = 11
	maximum = 29
	95th percentile = 18.5
	99th percentile = 21.5
Network latency average = 13.4059
	minimum = 11
	maximum = 29
	95th percentile = 18.5
	99th percentile = 21.5
Slowest packet = 50130
Flit latency average = 13.4062
	minimum = 11
	maximum = 29
	95th percentile = 18.5
	99th percentile = 21.5
Slowest flit = 50130
Fragmentation average = 0
	minimum = 0
	maximum = 0
Injected packet rate average = 0.300011
	minimum = 0.295619 (at node 0)
	maximum = 0.304762 (at node 2)
Accepted packet rate average = 0.299804
	minimum = 0.295286 (at node 4)
	maximum = 0.304571 (at node 6)
Injected flit rate average = 0.300011
	minimum = 0.295619 (at node 0)
	maximum = 0.304762 (at node 2)
Accepted flit rate average= 0.299804
	minimum = 0.295286 (at node 4)
	maximum = 0.304571 (at node 6)
Injected packet length average = 1
Accepted packet length average = 1
Total in-flight flits = 54 (54 measured)
====== Peak Queue Occupancy Statistics (Absolute Max) ======
  Overall Max VC Occupancy = 1
  Overall Max Buffer Occupancy = 2
latency change    = 0.0128361
throughput change = 0.0854114
Class 0:
Packet latency average = 14.1769
	minimum = 11
	maximum = 57
	95th percentile = 22.5
	99th percentile = 34.5
Network latency average = 14.1769
	minimum = 11
	maximum = 57
	95th percentile = 22.5
	99th percentile = 34.5
Slowest packet = 71915
Flit latency average = 14.177
	minimum = 11
	maximum = 57
	95th percentile = 22.5
	99th percentile = 34.5
Slowest flit = 71915
Fragmentation average = 0
	minimum = 0
	maximum = 0
Injected packet rate average = 0.325079
	minimum = 0.322833 (at node 0)
	maximum = 0.3295 (at node 2)
Accepted packet rate average = 0.324731
	minimum = 0.322542 (at node 4)
	maximum = 0.328958 (at node 6)
Injected flit rate average = 0.325079
	minimum = 0.322833 (at node 0)
	maximum = 0.3295 (at node 2)
Accepted flit rate average= 0.324731
	minimum = 0.322542 (at node 4)
	maximum = 0.328958 (at node 6)
Injected packet length average = 1
Accepted packet length average = 1
Total in-flight flits = 90 (90 measured)
====== Peak Queue Occupancy Statistics (Absolute Max) ======
  Overall Max VC Occupancy = 1
  Overall Max Buffer Occupancy = 2
latency change    = 0.0543828
throughput change = 0.0767626
Class 0:
Packet latency average = 19.0955
	minimum = 11
	maximum = 338
	95th percentile = 68.5
	99th percentile = 118.5
Network latency average = 19.0955
	minimum = 11
	maximum = 338
	95th percentile = 68.5
	99th percentile = 118.5
Slowest packet = 85294
Flit latency average = 19.0947
	minimum = 11
	maximum = 338
	95th percentile = 68.5
	99th percentile = 118.5
Slowest flit = 85294
Fragmentation average = 0
	minimum = 0
	maximum = 0
Injected packet rate average = 0.350156
	minimum = 0.347333 (at node 0)
	maximum = 0.352593 (at node 2)
Accepted packet rate average = 0.349284
	minimum = 0.346963 (at node 4)
	maximum = 0.351222 (at node 1)
Injected flit rate average = 0.350156
	minimum = 0.347333 (at node 0)
	maximum = 0.352593 (at node 2)
Accepted flit rate average= 0.349284
	minimum = 0.346963 (at node 4)
	maximum = 0.351222 (at node 1)
Injected packet length average = 1
Accepted packet length average = 1
Total in-flight flits = 227 (227 measured)
====== Peak Queue Occupancy Statistics (Absolute Max) ======
  Overall Max VC Occupancy = 1
  Overall Max Buffer Occupancy = 36
latency change    = 0.257578
throughput change = 0.0702937
Class 0:
Packet latency average = 24.3904
	minimum = 11
	maximum = 1008
	95th percentile = 92.5
	99th percentile = 169.5
Network latency average = 24.2578
	minimum = 11
	maximum = 1008
	95th percentile = 92.5
	99th percentile = 167.5
Slowest packet = 98081
Flit latency average = 24.2564
	minimum = 11
	maximum = 1008
	95th percentile = 92.5
	99th percentile = 167.5
Slowest flit = 98081
Fragmentation average = 0
	minimum = 0
	maximum = 0
Injected packet rate average = 0.375267
	minimum = 0.3731 (at node 0)
	maximum = 0.377 (at node 2)
Accepted packet rate average = 0.374526
	minimum = 0.372333 (at node 5)
	maximum = 0.3762 (at node 6)
Injected flit rate average = 0.375267
	minimum = 0.3731 (at node 0)
	maximum = 0.377 (at node 2)
Accepted flit rate average= 0.374526
	minimum = 0.372333 (at node 5)
	maximum = 0.3762 (at node 6)
Injected packet length average = 1
Accepted packet length average = 1
Total in-flight flits = 215 (215 measured)
====== Peak Queue Occupancy Statistics (Absolute Max) ======
  Overall Max VC Occupancy = 1
  Overall Max Buffer Occupancy = 48
latency change    = 0.217091
throughput change = 0.0673971
Class 0:
Packet latency average = 29.3376
	minimum = 11
	maximum = 1008
	95th percentile = 107.5
	99th percentile = 236.5
Network latency average = 29.0925
	minimum = 11
	maximum = 1008
	95th percentile = 106.5
	99th percentile = 234.5
Slowest packet = 98081
Flit latency average = 29.0907
	minimum = 11
	maximum = 1008
	95th percentile = 106.5
	99th percentile = 234.5
Slowest flit = 98081
Fragmentation average = 0
	minimum = 0
	maximum = 0
Injected packet rate average = 0.39597
	minimum = 0.393394 (at node 0)
	maximum = 0.397818 (at node 3)
Accepted packet rate average = 0.394845
	minimum = 0.393091 (at node 4)
	maximum = 0.397667 (at node 1)
Injected flit rate average = 0.39597
	minimum = 0.393394 (at node 0)
	maximum = 0.397818 (at node 3)
Accepted flit rate average= 0.394845
	minimum = 0.393091 (at node 4)
	maximum = 0.397667 (at node 1)
Injected packet length average = 1
Accepted packet length average = 1
Total in-flight flits = 349 (349 measured)
====== Peak Queue Occupancy Statistics (Absolute Max) ======
  Overall Max VC Occupancy = 1
  Overall Max Buffer Occupancy = 48
latency change    = 0.16863
throughput change = 0.0514612
Class 0:
Packet latency average = 32.0104
	minimum = 11
	maximum = 1008
	95th percentile = 116.5
	99th percentile = 264.5
Network latency average = 31.7549
	minimum = 11
	maximum = 1008
	95th percentile = 114.5
	99th percentile = 262.5
Slowest packet = 98081
Flit latency average = 31.753
	minimum = 11
	maximum = 1008
	95th percentile = 114.5
	99th percentile = 262.5
Slowest flit = 98081
Fragmentation average = 0
	minimum = 0
	maximum = 0
Injected packet rate average = 0.412793
	minimum = 0.409833 (at node 4)
	maximum = 0.415833 (at node 3)
Accepted packet rate average = 0.411892
	minimum = 0.409583 (at node 8)
	maximum = 0.415611 (at node 1)
Injected flit rate average = 0.412793
	minimum = 0.409833 (at node 4)
	maximum = 0.415833 (at node 3)
Accepted flit rate average= 0.411892
	minimum = 0.409583 (at node 8)
	maximum = 0.415611 (at node 1)
Injected packet length average = 1
Accepted packet length average = 1
Total in-flight flits = 307 (307 measured)
====== Peak Queue Occupancy Statistics (Absolute Max) ======
  Overall Max VC Occupancy = 1
  Overall Max Buffer Occupancy = 48
latency change    = 0.0834966
throughput change = 0.0413867
Class 0:
Packet latency average = 34.287
	minimum = 11
	maximum = 1008
	95th percentile = 125.5
	99th percentile = 274.5
Network latency average = 34.0495
	minimum = 11
	maximum = 1008
	95th percentile = 124.5
	99th percentile = 273.5
Slowest packet = 98081
Flit latency average = 34.0475
	minimum = 11
	maximum = 1008
	95th percentile = 124.5
	99th percentile = 273.5
Slowest flit = 98081
Fragmentation average = 0
	minimum = 0
	maximum = 0
Injected packet rate average = 0.426712
	minimum = 0.422744 (at node 4)
	maximum = 0.430179 (at node 2)
Accepted packet rate average = 0.425812
	minimum = 0.422205 (at node 8)
	maximum = 0.429821 (at node 1)
Injected flit rate average = 0.426712
	minimum = 0.422744 (at node 4)
	maximum = 0.430179 (at node 2)
Accepted flit rate average= 0.425812
	minimum = 0.422205 (at node 8)
	maximum = 0.429821 (at node 1)
Injected packet length average = 1
Accepted packet length average = 1
Total in-flight flits = 331 (331 measured)
====== Peak Queue Occupancy Statistics (Absolute Max) ======
  Overall Max VC Occupancy = 1
  Overall Max Buffer Occupancy = 48
latency change    = 0.0663989
throughput change = 0.0326905
Class 0:
Packet latency average = 36.4319
	minimum = 11
	maximum = 1023
	95th percentile = 134.5
	99th percentile = 293.5
Network latency average = 36.145
	minimum = 11
	maximum = 1009
	95th percentile = 132.5
	99th percentile = 291.5
Slowest packet = 160311
Flit latency average = 36.143
	minimum = 11
	maximum = 1009
	95th percentile = 132.5
	99th percentile = 291.5
Slowest flit = 160311
Fragmentation average = 0
	minimum = 0
	maximum = 0
Injected packet rate average = 0.439135
	minimum = 0.43581 (at node 4)
	maximum = 0.442452 (at node 3)
Accepted packet rate average = 0.438656
	minimum = 0.43569 (at node 8)
	maximum = 0.44219 (at node 1)
Injected flit rate average = 0.439135
	minimum = 0.43581 (at node 4)
	maximum = 0.442452 (at node 3)
Accepted flit rate average= 0.438656
	minimum = 0.43569 (at node 8)
	maximum = 0.44219 (at node 1)
Injected packet length average = 1
Accepted packet length average = 1
Total in-flight flits = 196 (196 measured)
====== Peak Queue Occupancy Statistics (Absolute Max) ======
  Overall Max VC Occupancy = 1
  Overall Max Buffer Occupancy = 48
latency change    = 0.0588748
throughput change = 0.0292806
Class 0:
Packet latency average = 37.8927
	minimum = 11
	maximum = 1050
	95th percentile = 138.5
	99th percentile = 301.5
Network latency average = 37.5881
	minimum = 11
	maximum = 1017
	95th percentile = 136.5
	99th percentile = 299.5
Slowest packet = 160311
Flit latency average = 37.5862
	minimum = 11
	maximum = 1017
	95th percentile = 136.5
	99th percentile = 299.5
Slowest flit = 175132
Fragmentation average = 0
	minimum = 0
	maximum = 0
Injected packet rate average = 0.449726
	minimum = 0.446756 (at node 4)
	maximum = 0.452222 (at node 3)
Accepted packet rate average = 0.449279
	minimum = 0.4466 (at node 8)
	maximum = 0.452044 (at node 1)
Injected flit rate average = 0.449726
	minimum = 0.446756 (at node 4)
	maximum = 0.452222 (at node 3)
Accepted flit rate average= 0.449279
	minimum = 0.4466 (at node 8)
	maximum = 0.452044 (at node 1)
Injected packet length average = 1
Accepted packet length average = 1
Total in-flight flits = 196 (196 measured)
====== Peak Queue Occupancy Statistics (Absolute Max) ======
  Overall Max VC Occupancy = 1
  Overall Max Buffer Occupancy = 48
latency change    = 0.0385496
throughput change = 0.0236444
Class 0:
Packet latency average = 39.0729
	minimum = 11
	maximum = 1050
	95th percentile = 143.5
	99th percentile = 307.5
Network latency average = 38.7743
	minimum = 11
	maximum = 1017
	95th percentile = 140.5
	99th percentile = 305.5
Slowest packet = 160311
Flit latency average = 38.7725
	minimum = 11
	maximum = 1017
	95th percentile = 140.5
	99th percentile = 305.5
Slowest flit = 175132
Fragmentation average = 0
	minimum = 0
	maximum = 0
Injected packet rate average = 0.459336
	minimum = 0.456104 (at node 4)
	maximum = 0.461313 (at node 3)
Accepted packet rate average = 0.458745
	minimum = 0.455937 (at node 8)
	maximum = 0.461229 (at node 1)
Injected flit rate average = 0.459336
	minimum = 0.456104 (at node 4)
	maximum = 0.461313 (at node 3)
Accepted flit rate average= 0.458745
	minimum = 0.455937 (at node 8)
	maximum = 0.461229 (at node 1)
Injected packet length average = 1
Accepted packet length average = 1
Total in-flight flits = 270 (270 measured)
====== Peak Queue Occupancy Statistics (Absolute Max) ======
  Overall Max VC Occupancy = 1
  Overall Max Buffer Occupancy = 48
latency change    = 0.0302054
throughput change = 0.0206353
Class 0:
Packet latency average = 40.151
	minimum = 11
	maximum = 1050
	95th percentile = 146.5
	99th percentile = 314.5
Network latency average = 39.8057
	minimum = 11
	maximum = 1017
	95th percentile = 144.5
	99th percentile = 312.5
Slowest packet = 160311
Flit latency average = 39.8039
	minimum = 11
	maximum = 1017
	95th percentile = 144.5
	99th percentile = 312.5
Slowest flit = 175132
Fragmentation average = 0
	minimum = 0
	maximum = 0
Injected packet rate average = 0.467632
	minimum = 0.464 (at node 4)
	maximum = 0.470196 (at node 3)
Accepted packet rate average = 0.466854
	minimum = 0.463765 (at node 8)
	maximum = 0.47 (at node 1)
Injected flit rate average = 0.467632
	minimum = 0.464 (at node 4)
	maximum = 0.470196 (at node 3)
Accepted flit rate average= 0.466854
	minimum = 0.463765 (at node 8)
	maximum = 0.47 (at node 1)
Injected packet length average = 1
Accepted packet length average = 1
Total in-flight flits = 372 (372 measured)
====== Peak Queue Occupancy Statistics (Absolute Max) ======
  Overall Max VC Occupancy = 1
  Overall Max Buffer Occupancy = 48
latency change    = 0.0268517
throughput change = 0.0173687
Draining all recorded packets ...
Draining remaining packets ...
Time taken is 57621 cycles
====== Overall Traffic Statistics ======
====== Traffic class 0 ======
Packet latency average = 40.4499 (1 samples)
	minimum = 11 (1 samples)
	maximum = 1050 (1 samples)
Network latency average = 40.0891 (1 samples)
	minimum = 11 (1 samples)
	maximum = 1017 (1 samples)
Flit latency average = 40.2056 (1 samples)
	minimum = 11 (1 samples)
	maximum = 1017 (1 samples)
Fragmentation average = 0 (1 samples)
	minimum = 0 (1 samples)
	maximum = 0 (1 samples)
Injected packet rate average = 0.467632 (1 samples)
	minimum = 0.464 (1 samples)
	maximum = 0.470196 (1 samples)
Accepted packet rate average = 0.466854 (1 samples)
	minimum = 0.463765 (1 samples)
	maximum = 0.47 (1 samples)
Injected flit rate average = 0.467632 (1 samples)
	minimum = 0.464 (1 samples)
	maximum = 0.470196 (1 samples)
Accepted flit rate average = 0.466854 (1 samples)
	minimum = 0.463765 (1 samples)
	maximum = 0.47 (1 samples)
Injected packet size average = 1 (1 samples)
Accepted packet size average = 1 (1 samples)
Hops average = 3.76599 (1 samples)
Total run time 13.2789
====== Hybrid Routing Split Statistics ======
XY packets = 170263
Racke packets = 51128
XY fraction = 0.76906
Racke fraction = 0.23094
Flow (0 -> 4) alpha=0.481236 xy_packets=18450 racke_packets=6152 racke_fraction=0.250061
Flow (1 -> 3) alpha=0.48127 xy_packets=18400 racke_packets=6229 racke_fraction=0.252913
Flow (2 -> 6) alpha=0.481309 xy_packets=18516 racke_packets=6142 racke_fraction=0.249088
Flow (3 -> 1) alpha=0.481329 xy_packets=18585 racke_packets=6118 racke_fraction=0.247662
Flow (4 -> 8) alpha=0.532618 xy_packets=20009 racke_packets=4430 racke_fraction=0.181268
Flow (5 -> 7) alpha=0.0926425 xy_packets=21081 racke_packets=3556 racke_fraction=0.144336
Flow (6 -> 2) alpha=0.532737 xy_packets=18555 racke_packets=6047 racke_fraction=0.245793
Flow (7 -> 5) alpha=0.533006 xy_packets=18318 racke_packets=6225 racke_fraction=0.253636
Flow (8 -> 0) alpha=0.533324 xy_packets=18349 racke_packets=6229 racke_fraction=0.253438
====== Hybrid Routing Window Statistics ======
Window [0,3000) xy_packets=1352 racke_packets=0 xy_fraction=1
Window [3000,6000) xy_packets=2785 racke_packets=0 xy_fraction=1
Window [6000,9000) xy_packets=4059 racke_packets=0 xy_fraction=1
Window [9000,12000) xy_packets=5320 racke_packets=0 xy_fraction=1
Window [12000,15000) xy_packets=6709 racke_packets=0 xy_fraction=1
Window [15000,18000) xy_packets=8078 racke_packets=0 xy_fraction=1
Window [18000,21000) xy_packets=9516 racke_packets=0 xy_fraction=1
Window [21000,24000) xy_packets=10771 racke_packets=0 xy_fraction=1
Window [24000,27000) xy_packets=12249 racke_packets=0 xy_fraction=1
Window [27000,30000) xy_packets=13515 racke_packets=0 xy_fraction=1
Window [30000,33000) xy_packets=12818 racke_packets=2053 xy_fraction=0.861946
Window [33000,36000) xy_packets=10285 racke_packets=5949 xy_fraction=0.633547
Window [36000,39000) xy_packets=10356 racke_packets=5925 xy_fraction=0.636079
Window [39000,42000) xy_packets=9933 racke_packets=6209 xy_fraction=0.615351
Window [42000,45000) xy_packets=9944 racke_packets=6087 xy_fraction=0.620298
Window [45000,48000) xy_packets=9673 racke_packets=6544 xy_fraction=0.596473
Window [48000,51000) xy_packets=10621 racke_packets=5525 xy_fraction=0.65781
Window [51000,54000) xy_packets=10360 racke_packets=5934 xy_fraction=0.635817
Window [54000,57000) xy_packets=10691 racke_packets=5519 xy_fraction=0.659531
Window [57000,60000) xy_packets=1228 racke_packets=1383 xy_fraction=0.470318

