BEGIN Configuration File: D:\noc_huawei\noc\booksim2-noc_speedup_study\booksim2-noc_speedup_study\tests\data\results\fixed_perm_growth_models_perm_4_3_6_1_8_7_2_5_0_peak_0p6_current_defaults\tmp_configs\ordered_fill_dim_order_s2201.config
num_vcs     = 48;
vc_buf_size = 16;
wait_for_tail_credit = 1;

vc_allocator = islip;
sw_allocator = islip;
alloc_iters  = 16;

credit_delay   = 2;
routing_delay  = 0;
vc_alloc_delay = 1;
sw_alloc_delay = 1;
st_final_delay = 1;

input_speedup     = 1;
output_speedup    = 1;
internal_speedup  = 2.0;

sim_type = latency;
latency_thres  = 100000.0;
sim_count      = 1;
queue_sample_period_cycles = 0;

topology = mesh;
k  = 3;
n  = 2;

hybrid_transition_mode = linear_prob;
hybrid_xy_low_threshold = 0.35;
hybrid_racke_high_threshold = 0.65;
hybrid_buffer_soft_threshold = 0.50;
hybrid_buffer_hard_threshold = 0.85;
hybrid_buffer_release_threshold = 0.35;
hybrid_rate_soft_threshold = 0.55;
hybrid_rate_hard_threshold = 0.90;
hybrid_rate_weight = 0.25;
hybrid_congestion_alpha = 0.25;
hybrid_racke_increase_step = 0.25;
hybrid_racke_decrease_step = 0.10;
hybrid_epoch_cycles = 200;
hybrid_hold_cycles = 600;
hybrid_enable_midflight_override = 1;
hybrid_feedback_delay_per_hop = 1;
hybrid_flow_increase_step = 0.20;
hybrid_flow_decrease_step = 0.08;
hybrid_flow_hard_threshold = 0.95;

packet_size = 1;

scheduled_injection_rates = {0.10,0.20,0.30};
scheduled_phase_cycles = {1000,1000,1000};
scheduled_default_phase_cycles = 1000;

custom_perm_array = {4,3,6,1,8,7,2,5,0};
warmup_periods = 2;
seed = 2201;
hybrid_flow_hotspot_alpha = 0.85;
injection_process = ordered_fill;
perm_seed = 2201;
ordered_injection_phase_cycles = {3000,3000,3000,3000,3000,3000,3000,3000,3000,3000,3000,3000,3000,3000};
routing_function = dim_order;
injection_rate = 0.6;
max_samples = 22;
ordered_injection_source_order = {4,0,7,2,8,1,5,3,6};
hybrid_flow_hotspot_threshold = 1.1;
ordered_injection_flow_peak_rate = 0.6;
ordered_injection_coefficients = {0.0833333333333333,0.166666666666667,0.25,0.333333333333333,0.416666666666667,0.5,0.583333333333333,0.666666666666667,0.75,0.833333333333333,0.916666666666667,1.0,1.0,1.0};
hybrid_stats_window_cycles = 3000;
traffic = custom_perm;
sample_period = 3000;

END Configuration File: D:\noc_huawei\noc\booksim2-noc_speedup_study\booksim2-noc_speedup_study\tests\data\results\fixed_perm_growth_models_perm_4_3_6_1_8_7_2_5_0_peak_0p6_current_defaults\tmp_configs\ordered_fill_dim_order_s2201.config
Class 0:
Packet latency average = 11
	minimum = 11
	maximum = 11
	95th percentile = 11.5
	99th percentile = 11.5
Network latency average = 11
	minimum = 11
	maximum = 11
	95th percentile = 11.5
	99th percentile = 11.5
Slowest packet = 0
Flit latency average = 11
	minimum = 11
	maximum = 11
	95th percentile = 11.5
	99th percentile = 11.5
Slowest flit = 0
Fragmentation average = 0
	minimum = 0
	maximum = 0
Injected packet rate average = 0.0502222
	minimum = 0 (at node 0)
	maximum = 0.452 (at node 4)
Accepted packet rate average = 0.049963
	minimum = 0 (at node 0)
	maximum = 0.449667 (at node 8)
Injected flit rate average = 0.0502222
	minimum = 0 (at node 0)
	maximum = 0.452 (at node 4)
Accepted flit rate average= 0.049963
	minimum = 0 (at node 0)
	maximum = 0.449667 (at node 8)
Injected packet length average = 1
Accepted packet length average = 1
Total in-flight flits = 7 (0 measured)
====== Peak Queue Occupancy Statistics (Absolute Max) ======
  Overall Max VC Occupancy = 1
  Overall Max Buffer Occupancy = 1
latency change    = 1
throughput change = 1
Class 0:
Packet latency average = 11
	minimum = 11
	maximum = 11
	95th percentile = 11.5
	99th percentile = 11.5
Network latency average = 11
	minimum = 11
	maximum = 11
	95th percentile = 11.5
	99th percentile = 11.5
Slowest packet = 0
Flit latency average = 11
	minimum = 11
	maximum = 11
	95th percentile = 11.5
	99th percentile = 11.5
Slowest flit = 0
Fragmentation average = 0
	minimum = 0
	maximum = 0
Injected packet rate average = 0.0735926
	minimum = 0 (at node 1)
	maximum = 0.516333 (at node 4)
Accepted packet rate average = 0.0734444
	minimum = 0 (at node 0)
	maximum = 0.515667 (at node 8)
Injected flit rate average = 0.0735926
	minimum = 0 (at node 1)
	maximum = 0.516333 (at node 4)
Accepted flit rate average= 0.0734444
	minimum = 0 (at node 0)
	maximum = 0.515667 (at node 8)
Injected packet length average = 1
Accepted packet length average = 1
Total in-flight flits = 8 (0 measured)
====== Peak Queue Occupancy Statistics (Absolute Max) ======
  Overall Max VC Occupancy = 1
  Overall Max Buffer Occupancy = 1
latency change    = 0
throughput change = 0.319718
Warmed up ...Time used is 6000 cycles
Class 0:
Packet latency average = 11
	minimum = 11
	maximum = 11
	95th percentile = 11.5
	99th percentile = 11.5
Network latency average = 11
	minimum = 11
	maximum = 11
	95th percentile = 11.5
	99th percentile = 11.5
Slowest packet = 3974
Flit latency average = 11
	minimum = 11
	maximum = 11
	95th percentile = 11.5
	99th percentile = 11.5
Slowest flit = 3966
Fragmentation average = 0
	minimum = 0
	maximum = 0
Injected packet rate average = 0.147593
	minimum = 0 (at node 1)
	maximum = 0.597333 (at node 4)
Accepted packet rate average = 0.147222
	minimum = 0 (at node 0)
	maximum = 0.595333 (at node 8)
Injected flit rate average = 0.147593
	minimum = 0 (at node 1)
	maximum = 0.597333 (at node 4)
Accepted flit rate average= 0.147222
	minimum = 0 (at node 0)
	maximum = 0.595333 (at node 8)
Injected packet length average = 1
Accepted packet length average = 1
Total in-flight flits = 18 (18 measured)
====== Peak Queue Occupancy Statistics (Absolute Max) ======
  Overall Max VC Occupancy = 1
  Overall Max Buffer Occupancy = 1
latency change    = 0
throughput change = 0.501132
Class 0:
Packet latency average = 11
	minimum = 11
	maximum = 11
	95th percentile = 11.5
	99th percentile = 11.5
Network latency average = 11
	minimum = 11
	maximum = 11
	95th percentile = 11.5
	99th percentile = 11.5
Slowest packet = 3974
Flit latency average = 11
	minimum = 11
	maximum = 11
	95th percentile = 11.5
	99th percentile = 11.5
Slowest flit = 3966
Fragmentation average = 0
	minimum = 0
	maximum = 0
Injected packet rate average = 0.173926
	minimum = 0 (at node 1)
	maximum = 0.6055 (at node 4)
Accepted packet rate average = 0.173667
	minimum = 0 (at node 0)
	maximum = 0.604833 (at node 8)
Injected flit rate average = 0.173926
	minimum = 0 (at node 1)
	maximum = 0.6055 (at node 4)
Accepted flit rate average= 0.173667
	minimum = 0 (at node 0)
	maximum = 0.604833 (at node 8)
Injected packet length average = 1
Accepted packet length average = 1
Total in-flight flits = 22 (22 measured)
====== Peak Queue Occupancy Statistics (Absolute Max) ======
  Overall Max VC Occupancy = 1
  Overall Max Buffer Occupancy = 1
latency change    = 0
throughput change = 0.152271
Class 0:
Packet latency average = 11.4835
	minimum = 11
	maximum = 17
	95th percentile = 17.5
	99th percentile = 17.5
Network latency average = 11.4835
	minimum = 11
	maximum = 17
	95th percentile = 17.5
	99th percentile = 17.5
Slowest packet = 13369
Flit latency average = 11.4833
	minimum = 11
	maximum = 17
	95th percentile = 17.5
	99th percentile = 17.5
Slowest flit = 13369
Fragmentation average = 0
	minimum = 0
	maximum = 0
Injected packet rate average = 0.199617
	minimum = 0 (at node 1)
	maximum = 0.604778 (at node 4)
Accepted packet rate average = 0.19942
	minimum = 0 (at node 0)
	maximum = 0.604222 (at node 8)
Injected flit rate average = 0.199617
	minimum = 0 (at node 1)
	maximum = 0.604778 (at node 4)
Accepted flit rate average= 0.19942
	minimum = 0 (at node 0)
	maximum = 0.604222 (at node 8)
Injected packet length average = 1
Accepted packet length average = 1
Total in-flight flits = 24 (24 measured)
====== Peak Queue Occupancy Statistics (Absolute Max) ======
  Overall Max VC Occupancy = 1
  Overall Max Buffer Occupancy = 1
latency change    = 0.0421033
throughput change = 0.12914
Class 0:
Packet latency average = 11.9956
	minimum = 11
	maximum = 17
	95th percentile = 17.5
	99th percentile = 17.5
Network latency average = 11.9956
	minimum = 11
	maximum = 17
	95th percentile = 17.5
	99th percentile = 17.5
Slowest packet = 13369
Flit latency average = 11.9953
	minimum = 11
	maximum = 17
	95th percentile = 17.5
	99th percentile = 17.5
Slowest flit = 13369
Fragmentation average = 0
	minimum = 0
	maximum = 0
Injected packet rate average = 0.224991
	minimum = 0 (at node 1)
	maximum = 0.60675 (at node 4)
Accepted packet rate average = 0.224731
	minimum = 0 (at node 1)
	maximum = 0.60675 (at node 8)
Injected flit rate average = 0.224991
	minimum = 0 (at node 1)
	maximum = 0.60675 (at node 4)
Accepted flit rate average= 0.224731
	minimum = 0 (at node 1)
	maximum = 0.60675 (at node 8)
Injected packet length average = 1
Accepted packet length average = 1
Total in-flight flits = 36 (36 measured)
====== Peak Queue Occupancy Statistics (Absolute Max) ======
  Overall Max VC Occupancy = 1
  Overall Max Buffer Occupancy = 1
latency change    = 0.0426904
throughput change = 0.112631
Class 0:
Packet latency average = 12.3852
	minimum = 11
	maximum = 21
	95th percentile = 17.5
	99th percentile = 18.5
Network latency average = 12.3852
	minimum = 11
	maximum = 21
	95th percentile = 17.5
	99th percentile = 18.5
Slowest packet = 33499
Flit latency average = 12.3849
	minimum = 11
	maximum = 21
	95th percentile = 17.5
	99th percentile = 18.5
Slowest flit = 33499
Fragmentation average = 0
	minimum = 0
	maximum = 0
Injected packet rate average = 0.249481
	minimum = 0 (at node 3)
	maximum = 0.6056 (at node 4)
Accepted packet rate average = 0.249259
	minimum = 0 (at node 1)
	maximum = 0.605467 (at node 8)
Injected flit rate average = 0.249481
	minimum = 0 (at node 3)
	maximum = 0.6056 (at node 4)
Accepted flit rate average= 0.249259
	minimum = 0 (at node 1)
	maximum = 0.605467 (at node 8)
Injected packet length average = 1
Accepted packet length average = 1
Total in-flight flits = 38 (38 measured)
====== Peak Queue Occupancy Statistics (Absolute Max) ======
  Overall Max VC Occupancy = 1
  Overall Max Buffer Occupancy = 2
latency change    = 0.0314603
throughput change = 0.0984027
Class 0:
Packet latency average = 29.3716
	minimum = 11
	maximum = 1808
	95th percentile = 83.5
	99th percentile = 637.5
Network latency average = 21.9696
	minimum = 11
	maximum = 1754
	95th percentile = 66.5
	99th percentile = 204.5
Slowest packet = 41628
Flit latency average = 21.9676
	minimum = 11
	maximum = 1754
	95th percentile = 66.5
	99th percentile = 204.5
Slowest flit = 41628
Fragmentation average = 0
	minimum = 0
	maximum = 0
Injected packet rate average = 0.271673
	minimum = 0 (at node 3)
	maximum = 0.604611 (at node 4)
Accepted packet rate average = 0.270327
	minimum = 0 (at node 1)
	maximum = 0.604444 (at node 8)
Injected flit rate average = 0.271673
	minimum = 0 (at node 3)
	maximum = 0.604611 (at node 4)
Accepted flit rate average= 0.270327
	minimum = 0 (at node 1)
	maximum = 0.604444 (at node 8)
Injected packet length average = 1
Accepted packet length average = 1
Total in-flight flits = 227 (227 measured)
====== Peak Queue Occupancy Statistics (Absolute Max) ======
  Overall Max VC Occupancy = 1
  Overall Max Buffer Occupancy = 48
latency change    = 0.578326
throughput change = 0.0779348
Class 0:
Packet latency average = 66.5611
	minimum = 11
	maximum = 1808
	95th percentile = 608.5
	99th percentile = 918.5
Network latency average = 29.5808
	minimum = 11
	maximum = 1754
	95th percentile = 107.5
	99th percentile = 361.5
Slowest packet = 41628
Flit latency average = 29.5781
	minimum = 11
	maximum = 1754
	95th percentile = 107.5
	99th percentile = 361.5
Slowest flit = 41628
Fragmentation average = 0
	minimum = 0
	maximum = 0
Injected packet rate average = 0.294243
	minimum = 0 (at node 3)
	maximum = 0.604095 (at node 4)
Accepted packet rate average = 0.293074
	minimum = 0 (at node 1)
	maximum = 0.604095 (at node 8)
Injected flit rate average = 0.294243
	minimum = 0 (at node 3)
	maximum = 0.604095 (at node 4)
Accepted flit rate average= 0.293074
	minimum = 0 (at node 1)
	maximum = 0.604095 (at node 8)
Injected packet length average = 1
Accepted packet length average = 1
Total in-flight flits = 231 (231 measured)
====== Peak Queue Occupancy Statistics (Absolute Max) ======
  Overall Max VC Occupancy = 1
  Overall Max Buffer Occupancy = 48
latency change    = 0.558727
throughput change = 0.0776149
Class 0:
Packet latency average = 111.182
	minimum = 11
	maximum = 2520
	95th percentile = 860.5
	99th percentile = 999.5
Network latency average = 34.2098
	minimum = 11
	maximum = 1754
	95th percentile = 137.5
	99th percentile = 423.5
Slowest packet = 41628
Flit latency average = 34.2071
	minimum = 11
	maximum = 1754
	95th percentile = 137.5
	99th percentile = 423.5
Slowest flit = 41628
Fragmentation average = 0
	minimum = 0
	maximum = 0
Injected packet rate average = 0.317245
	minimum = 0 (at node 6)
	maximum = 0.604167 (at node 4)
Accepted packet rate average = 0.316231
	minimum = 0 (at node 2)
	maximum = 0.604083 (at node 8)
Injected flit rate average = 0.317245
	minimum = 0 (at node 6)
	maximum = 0.604167 (at node 4)
Accepted flit rate average= 0.316231
	minimum = 0 (at node 2)
	maximum = 0.604083 (at node 8)
Injected packet length average = 1
Accepted packet length average = 1
Total in-flight flits = 228 (228 measured)
====== Peak Queue Occupancy Statistics (Absolute Max) ======
  Overall Max VC Occupancy = 1
  Overall Max Buffer Occupancy = 48
latency change    = 0.40133
throughput change = 0.0732293
Class 0:
Packet latency average = 157.81
	minimum = 11
	maximum = 2864
	95th percentile = 999.5
	99th percentile = 999.5
Network latency average = 36.9454
	minimum = 11
	maximum = 1754
	95th percentile = 142.5
	99th percentile = 502.5
Slowest packet = 41628
Flit latency average = 36.9428
	minimum = 11
	maximum = 1754
	95th percentile = 142.5
	99th percentile = 502.5
Slowest flit = 41628
Fragmentation average = 0
	minimum = 0
	maximum = 0
Injected packet rate average = 0.340514
	minimum = 0.0161481 (at node 6)
	maximum = 0.603556 (at node 4)
Accepted packet rate average = 0.339539
	minimum = 0.0160741 (at node 2)
	maximum = 0.603519 (at node 8)
Injected flit rate average = 0.340514
	minimum = 0.0161481 (at node 6)
	maximum = 0.603556 (at node 4)
Accepted flit rate average= 0.339539
	minimum = 0.0160741 (at node 2)
	maximum = 0.603519 (at node 8)
Injected packet length average = 1
Accepted packet length average = 1
Total in-flight flits = 245 (245 measured)
====== Peak Queue Occupancy Statistics (Absolute Max) ======
  Overall Max VC Occupancy = 1
  Overall Max Buffer Occupancy = 48
latency change    = 0.295473
throughput change = 0.0686449
Class 0:
Packet latency average = 212.49
	minimum = 11
	maximum = 3293
	95th percentile = 999.5
	99th percentile = 999.5
Network latency average = 42.402
	minimum = 11
	maximum = 2080
	95th percentile = 166.5
	99th percentile = 691.5
Slowest packet = 41628
Flit latency average = 42.3995
	minimum = 11
	maximum = 2080
	95th percentile = 166.5
	99th percentile = 690.5
Slowest flit = 90057
Fragmentation average = 0
	minimum = 0
	maximum = 0
Injected packet rate average = 0.362659
	minimum = 0.0604333 (at node 6)
	maximum = 0.6044 (at node 4)
Accepted packet rate average = 0.361133
	minimum = 0.0564667 (at node 2)
	maximum = 0.604333 (at node 8)
Injected flit rate average = 0.362659
	minimum = 0.0604333 (at node 6)
	maximum = 0.6044 (at node 4)
Accepted flit rate average= 0.361133
	minimum = 0.0564667 (at node 2)
	maximum = 0.604333 (at node 8)
Injected packet length average = 1
Accepted packet length average = 1
Total in-flight flits = 421 (421 measured)
====== Peak Queue Occupancy Statistics (Absolute Max) ======
  Overall Max VC Occupancy = 1
  Overall Max Buffer Occupancy = 48
latency change    = 0.25733
throughput change = 0.0597958
Class 0:
Packet latency average = 280.53
	minimum = 11
	maximum = 3917
	95th percentile = 999.5
	99th percentile = 999.5
Network latency average = 47.996
	minimum = 11
	maximum = 2557
	95th percentile = 185.5
	99th percentile = 704.5
Slowest packet = 41628
Flit latency average = 47.9934
	minimum = 11
	maximum = 2557
	95th percentile = 185.5
	99th percentile = 704.5
Slowest flit = 91909
Fragmentation average = 0
	minimum = 0
	maximum = 0
Injected packet rate average = 0.380303
	minimum = 0.10697 (at node 6)
	maximum = 0.603758 (at node 4)
Accepted packet rate average = 0.378912
	minimum = 0.103455 (at node 2)
	maximum = 0.603667 (at node 8)
Injected flit rate average = 0.380303
	minimum = 0.10697 (at node 6)
	maximum = 0.603758 (at node 4)
Accepted flit rate average= 0.378912
	minimum = 0.103455 (at node 2)
	maximum = 0.603667 (at node 8)
Injected packet length average = 1
Accepted packet length average = 1
Total in-flight flits = 424 (424 measured)
====== Peak Queue Occupancy Statistics (Absolute Max) ======
  Overall Max VC Occupancy = 1
  Overall Max Buffer Occupancy = 48
latency change    = 0.24254
throughput change = 0.0469215
Class 0:
Packet latency average = 353.749
	minimum = 11
	maximum = 4559
	95th percentile = 999.5
	99th percentile = 999.5
Network latency average = 52.2302
	minimum = 11
	maximum = 2557
	95th percentile = 191.5
	99th percentile = 767.5
Slowest packet = 41628
Flit latency average = 52.2276
	minimum = 11
	maximum = 2557
	95th percentile = 191.5
	99th percentile = 767.5
Slowest flit = 91909
Fragmentation average = 0
	minimum = 0
	maximum = 0
Injected packet rate average = 0.394883
	minimum = 0.136944 (at node 6)
	maximum = 0.60375 (at node 4)
Accepted packet rate average = 0.393608
	minimum = 0.1335 (at node 2)
	maximum = 0.603694 (at node 8)
Injected flit rate average = 0.394883
	minimum = 0.136944 (at node 6)
	maximum = 0.60375 (at node 4)
Accepted flit rate average= 0.393608
	minimum = 0.1335 (at node 2)
	maximum = 0.603694 (at node 8)
Injected packet length average = 1
Accepted packet length average = 1
Total in-flight flits = 422 (422 measured)
====== Peak Queue Occupancy Statistics (Absolute Max) ======
  Overall Max VC Occupancy = 1
  Overall Max Buffer Occupancy = 48
latency change    = 0.206981
throughput change = 0.0373355
Class 0:
Packet latency average = 432.854
	minimum = 11
	maximum = 4664
	95th percentile = 999.5
	99th percentile = 999.5
Network latency average = 55.4761
	minimum = 11
	maximum = 2557
	95th percentile = 197.5
	99th percentile = 767.5
Slowest packet = 41628
Flit latency average = 55.4737
	minimum = 11
	maximum = 2557
	95th percentile = 197.5
	99th percentile = 767.5
Slowest flit = 91909
Fragmentation average = 0
	minimum = 0
	maximum = 0
Injected packet rate average = 0.407308
	minimum = 0.162231 (at node 6)
	maximum = 0.604154 (at node 4)
Accepted packet rate average = 0.406142
	minimum = 0.159308 (at node 2)
	maximum = 0.604051 (at node 8)
Injected flit rate average = 0.407308
	minimum = 0.162231 (at node 6)
	maximum = 0.604154 (at node 4)
Accepted flit rate average= 0.406142
	minimum = 0.159308 (at node 2)
	maximum = 0.604051 (at node 8)
Injected packet length average = 1
Accepted packet length average = 1
Total in-flight flits = 420 (420 measured)
====== Peak Queue Occupancy Statistics (Absolute Max) ======
  Overall Max VC Occupancy = 1
  Overall Max Buffer Occupancy = 48
latency change    = 0.182752
throughput change = 0.0308621
Class 0:
Packet latency average = 516.659
	minimum = 11
	maximum = 5344
	95th percentile = 999.5
	99th percentile = 999.5
Network latency average = 58.2342
	minimum = 11
	maximum = 2557
	95th percentile = 206.5
	99th percentile = 767.5
Slowest packet = 41628
Flit latency average = 58.2318
	minimum = 11
	maximum = 2557
	95th percentile = 206.5
	99th percentile = 767.5
Slowest flit = 91909
Fragmentation average = 0
	minimum = 0
	maximum = 0
Injected packet rate average = 0.417905
	minimum = 0.191619 (at node 6)
	maximum = 0.604167 (at node 4)
Accepted packet rate average = 0.416825
	minimum = 0.188857 (at node 2)
	maximum = 0.604119 (at node 8)
Injected flit rate average = 0.417905
	minimum = 0.191619 (at node 6)
	maximum = 0.604167 (at node 4)
Accepted flit rate average= 0.416825
	minimum = 0.188857 (at node 2)
	maximum = 0.604119 (at node 8)
Injected packet length average = 1
Accepted packet length average = 1
Total in-flight flits = 420 (420 measured)
====== Peak Queue Occupancy Statistics (Absolute Max) ======
  Overall Max VC Occupancy = 1
  Overall Max Buffer Occupancy = 48
latency change    = 0.162205
throughput change = 0.0256293
Class 0:
Packet latency average = 602.31
	minimum = 11
	maximum = 5752
	95th percentile = 999.5
	99th percentile = 999.5
Network latency average = 60.4815
	minimum = 11
	maximum = 2557
	95th percentile = 216.5
	99th percentile = 784.5
Slowest packet = 41628
Flit latency average = 60.4792
	minimum = 11
	maximum = 2557
	95th percentile = 216.5
	99th percentile = 784.5
Slowest flit = 91909
Fragmentation average = 0
	minimum = 0
	maximum = 0
Injected packet rate average = 0.426852
	minimum = 0.209089 (at node 6)
	maximum = 0.602911 (at node 4)
Accepted packet rate average = 0.425822
	minimum = 0.206356 (at node 2)
	maximum = 0.602844 (at node 8)
Injected flit rate average = 0.426852
	minimum = 0.209089 (at node 6)
	maximum = 0.602911 (at node 4)
Accepted flit rate average= 0.425822
	minimum = 0.206356 (at node 2)
	maximum = 0.602844 (at node 8)
Injected packet length average = 1
Accepted packet length average = 1
Total in-flight flits = 426 (426 measured)
====== Peak Queue Occupancy Statistics (Absolute Max) ======
  Overall Max VC Occupancy = 1
  Overall Max Buffer Occupancy = 48
latency change    = 0.142204
throughput change = 0.0211281
Class 0:
Packet latency average = 690.569
	minimum = 11
	maximum = 6136
	95th percentile = 999.5
	99th percentile = 999.5
Network latency average = 62.3171
	minimum = 11
	maximum = 2557
	95th percentile = 224.5
	99th percentile = 810.5
Slowest packet = 41628
Flit latency average = 62.315
	minimum = 11
	maximum = 2557
	95th percentile = 224.5
	99th percentile = 810.5
Slowest flit = 91909
Fragmentation average = 0
	minimum = 0
	maximum = 0
Injected packet rate average = 0.43494
	minimum = 0.226312 (at node 6)
	maximum = 0.604104 (at node 4)
Accepted packet rate average = 0.433979
	minimum = 0.224083 (at node 2)
	maximum = 0.604021 (at node 8)
Injected flit rate average = 0.43494
	minimum = 0.226312 (at node 6)
	maximum = 0.604104 (at node 4)
Accepted flit rate average= 0.433979
	minimum = 0.224083 (at node 2)
	maximum = 0.604021 (at node 8)
Injected packet length average = 1
Accepted packet length average = 1
Total in-flight flits = 426 (426 measured)
====== Peak Queue Occupancy Statistics (Absolute Max) ======
  Overall Max VC Occupancy = 1
  Overall Max Buffer Occupancy = 48
latency change    = 0.127806
throughput change = 0.0187957
Class 0:
Packet latency average = 780.459
	minimum = 11
	maximum = 6833
	95th percentile = 999.5
	99th percentile = 999.5
Network latency average = 63.9806
	minimum = 11
	maximum = 2557
	95th percentile = 226.5
	99th percentile = 825.5
Slowest packet = 41628
Flit latency average = 63.9785
	minimum = 11
	maximum = 2557
	95th percentile = 226.5
	99th percentile = 825.5
Slowest flit = 91909
Fragmentation average = 0
	minimum = 0
	maximum = 0
Injected packet rate average = 0.442031
	minimum = 0.246392 (at node 6)
	maximum = 0.603176 (at node 4)
Accepted packet rate average = 0.441129
	minimum = 0.244118 (at node 2)
	maximum = 0.603098 (at node 8)
Injected flit rate average = 0.442031
	minimum = 0.246392 (at node 6)
	maximum = 0.603176 (at node 4)
Accepted flit rate average= 0.441129
	minimum = 0.244118 (at node 2)
	maximum = 0.603098 (at node 8)
Injected packet length average = 1
Accepted packet length average = 1
Total in-flight flits = 423 (423 measured)
====== Peak Queue Occupancy Statistics (Absolute Max) ======
  Overall Max VC Occupancy = 1
  Overall Max Buffer Occupancy = 48
latency change    = 0.115176
throughput change = 0.016207
Class 0:
Packet latency average = 870.915
	minimum = 11
	maximum = 7079
	95th percentile = 999.5
	99th percentile = 999.5
Network latency average = 65.3215
	minimum = 11
	maximum = 2557
	95th percentile = 231.5
	99th percentile = 855.5
Slowest packet = 41628
Flit latency average = 65.3195
	minimum = 11
	maximum = 2557
	95th percentile = 231.5
	99th percentile = 855.5
Slowest flit = 91909
Fragmentation average = 0
	minimum = 0
	maximum = 0
Injected packet rate average = 0.448383
	minimum = 0.257241 (at node 6)
	maximum = 0.602907 (at node 4)
Accepted packet rate average = 0.447547
	minimum = 0.254963 (at node 2)
	maximum = 0.602852 (at node 8)
Injected flit rate average = 0.448383
	minimum = 0.257241 (at node 6)
	maximum = 0.602907 (at node 4)
Accepted flit rate average= 0.447547
	minimum = 0.254963 (at node 2)
	maximum = 0.602852 (at node 8)
Injected packet length average = 1
Accepted packet length average = 1
Total in-flight flits = 415 (415 measured)
====== Peak Queue Occupancy Statistics (Absolute Max) ======
  Overall Max VC Occupancy = 1
  Overall Max Buffer Occupancy = 48
latency change    = 0.103864
throughput change = 0.0143421
Class 0:
Packet latency average = 963.459
	minimum = 11
	maximum = 7595
	95th percentile = 999.5
	99th percentile = 999.5
Network latency average = 66.5126
	minimum = 11
	maximum = 2557
	95th percentile = 232.5
	99th percentile = 860.5
Slowest packet = 41628
Flit latency average = 66.5107
	minimum = 11
	maximum = 2557
	95th percentile = 232.5
	99th percentile = 860.5
Slowest flit = 91909
Fragmentation average = 0
	minimum = 0
	maximum = 0
Injected packet rate average = 0.45406
	minimum = 0.270526 (at node 6)
	maximum = 0.602614 (at node 4)
Accepted packet rate average = 0.453263
	minimum = 0.268614 (at node 2)
	maximum = 0.602596 (at node 8)
Injected flit rate average = 0.45406
	minimum = 0.270526 (at node 6)
	maximum = 0.602614 (at node 4)
Accepted flit rate average= 0.453263
	minimum = 0.268614 (at node 2)
	maximum = 0.602596 (at node 8)
Injected packet length average = 1
Accepted packet length average = 1
Total in-flight flits = 420 (420 measured)
====== Peak Queue Occupancy Statistics (Absolute Max) ======
  Overall Max VC Occupancy = 1
  Overall Max Buffer Occupancy = 48
latency change    = 0.0960535
throughput change = 0.0126104
Class 0:
Packet latency average = 1056.7
	minimum = 11
	maximum = 8509
	95th percentile = 999.5
	99th percentile = 999.5
Network latency average = 67.5677
	minimum = 11
	maximum = 2668
	95th percentile = 233.5
	99th percentile = 860.5
Slowest packet = 41628
Flit latency average = 67.5659
	minimum = 11
	maximum = 2668
	95th percentile = 233.5
	99th percentile = 860.5
Slowest flit = 235356
Fragmentation average = 0
	minimum = 0
	maximum = 0
Injected packet rate average = 0.459317
	minimum = 0.284733 (at node 6)
	maximum = 0.6033 (at node 4)
Accepted packet rate average = 0.458552
	minimum = 0.282767 (at node 2)
	maximum = 0.603267 (at node 8)
Injected flit rate average = 0.459317
	minimum = 0.284733 (at node 6)
	maximum = 0.6033 (at node 4)
Accepted flit rate average= 0.458552
	minimum = 0.282767 (at node 2)
	maximum = 0.603267 (at node 8)
Injected packet length average = 1
Accepted packet length average = 1
Total in-flight flits = 424 (424 measured)
====== Peak Queue Occupancy Statistics (Absolute Max) ======
  Overall Max VC Occupancy = 1
  Overall Max Buffer Occupancy = 48
latency change    = 0.088236
throughput change = 0.0115335
Draining all recorded packets ...
Class 0:
Remaining flits: 247517 247766 248017 248251 248495 248736 248961 249205 249442 249677 [...] (421 flits)
Measured flits: 247517 247766 248017 248251 248495 248736 248961 249205 249442 249677 [...] (383 flits)
Class 0:
Remaining flits: 252005 252225 252741 252863 253473 253633 253865 254120 254196 254381 [...] (421 flits)
Measured flits: 252005 252225 252741 252863 253473 253633 253865 254120 254196 254381 [...] (384 flits)
Class 0:
Remaining flits: 256566 256826 256935 257676 257961 258004 258170 258248 258442 258825 [...] (427 flits)
Measured flits: 256566 256826 256935 257676 257961 258004 258170 258248 258442 258825 [...] (384 flits)
Class 0:
Remaining flits: 262160 262592 262836 263078 263331 263563 263796 264039 264268 264502 [...] (426 flits)
Measured flits: 262160 262592 262836 263078 263331 263563 263796 264039 264268 264502 [...] (384 flits)
Class 0:
Remaining flits: 267371 267608 267854 268082 268326 268565 268813 269070 269312 269539 [...] (421 flits)
Measured flits: 267371 267608 267854 268082 268326 268565 268813 269070 269312 269539 [...] (384 flits)
Class 0:
Remaining flits: 272402 272639 272880 273117 273345 273373 273599 273742 273837 274055 [...] (422 flits)
Measured flits: 272402 272639 272880 273117 273345 273373 273599 273742 273837 274055 [...] (386 flits)
Class 0:
Remaining flits: 276491 277354 277461 277467 277574 278081 278188 278892 279045 279241 [...] (424 flits)
Measured flits: 276491 277354 277461 277467 277574 278081 278188 278892 279045 279241 [...] (322 flits)
Class 0:
Remaining flits: 281803 281814 281831 281837 282220 282294 282784 283253 283494 283500 [...] (413 flits)
Measured flits: 281803 281814 281831 281837 282220 282294 282784 283253 283494 283500 [...] (207 flits)
Class 0:
Remaining flits: 287445 287685 287908 288146 288378 288615 288853 289110 289350 289590 [...] (418 flits)
Measured flits: 292115 292134 292867 292959 293428 293531 293768 294135 294268 294278 [...] (85 flits)
Draining remaining packets ...
Time taken is 76015 cycles
====== Overall Traffic Statistics ======
====== Traffic class 0 ======
Packet latency average = 1432.59 (1 samples)
	minimum = 11 (1 samples)
	maximum = 9970 (1 samples)
Network latency average = 75.5246 (1 samples)
	minimum = 11 (1 samples)
	maximum = 2668 (1 samples)
Flit latency average = 70.6716 (1 samples)
	minimum = 11 (1 samples)
	maximum = 2668 (1 samples)
Fragmentation average = 0 (1 samples)
	minimum = 0 (1 samples)
	maximum = 0 (1 samples)
Injected packet rate average = 0.459317 (1 samples)
	minimum = 0.284733 (1 samples)
	maximum = 0.6033 (1 samples)
Accepted packet rate average = 0.458552 (1 samples)
	minimum = 0.282767 (1 samples)
	maximum = 0.603267 (1 samples)
Injected flit rate average = 0.459317 (1 samples)
	minimum = 0.284733 (1 samples)
	maximum = 0.6033 (1 samples)
Accepted flit rate average = 0.458552 (1 samples)
	minimum = 0.282767 (1 samples)
	maximum = 0.603267 (1 samples)
Injected packet size average = 1 (1 samples)
Accepted packet size average = 1 (1 samples)
Hops average = 3.62188 (1 samples)
Total run time 27.9599

