BEGIN Configuration File: D:\noc_huawei\noc\booksim2-noc_speedup_study\booksim2-noc_speedup_study\tests\data\results\fixed_perm_growth_models_perm_4_3_6_1_8_7_2_5_0_peak_0p6_current_defaults\tmp_configs\ordered_fill_dim_order_s2205.config
num_vcs     = 48;
vc_buf_size = 16;
wait_for_tail_credit = 1;

vc_allocator = islip;
sw_allocator = islip;
alloc_iters  = 16;

credit_delay   = 2;
routing_delay  = 0;
vc_alloc_delay = 1;
sw_alloc_delay = 1;
st_final_delay = 1;

input_speedup     = 1;
output_speedup    = 1;
internal_speedup  = 2.0;

sim_type = latency;
latency_thres  = 100000.0;
sim_count      = 1;
queue_sample_period_cycles = 0;

topology = mesh;
k  = 3;
n  = 2;

hybrid_transition_mode = linear_prob;
hybrid_xy_low_threshold = 0.35;
hybrid_racke_high_threshold = 0.65;
hybrid_buffer_soft_threshold = 0.50;
hybrid_buffer_hard_threshold = 0.85;
hybrid_buffer_release_threshold = 0.35;
hybrid_rate_soft_threshold = 0.55;
hybrid_rate_hard_threshold = 0.90;
hybrid_rate_weight = 0.25;
hybrid_congestion_alpha = 0.25;
hybrid_racke_increase_step = 0.25;
hybrid_racke_decrease_step = 0.10;
hybrid_epoch_cycles = 200;
hybrid_hold_cycles = 600;
hybrid_enable_midflight_override = 1;
hybrid_feedback_delay_per_hop = 1;
hybrid_flow_increase_step = 0.20;
hybrid_flow_decrease_step = 0.08;
hybrid_flow_hard_threshold = 0.95;

packet_size = 1;

scheduled_injection_rates = {0.10,0.20,0.30};
scheduled_phase_cycles = {1000,1000,1000};
scheduled_default_phase_cycles = 1000;

custom_perm_array = {4,3,6,1,8,7,2,5,0};
warmup_periods = 2;
seed = 2205;
hybrid_flow_hotspot_alpha = 0.85;
injection_process = ordered_fill;
perm_seed = 2205;
ordered_injection_phase_cycles = {3000,3000,3000,3000,3000,3000,3000,3000,3000,3000,3000,3000,3000,3000};
routing_function = dim_order;
injection_rate = 0.6;
max_samples = 22;
ordered_injection_source_order = {4,0,7,2,8,1,5,3,6};
hybrid_flow_hotspot_threshold = 1.1;
ordered_injection_flow_peak_rate = 0.6;
ordered_injection_coefficients = {0.0833333333333333,0.166666666666667,0.25,0.333333333333333,0.416666666666667,0.5,0.583333333333333,0.666666666666667,0.75,0.833333333333333,0.916666666666667,1.0,1.0,1.0};
hybrid_stats_window_cycles = 3000;
traffic = custom_perm;
sample_period = 3000;

END Configuration File: D:\noc_huawei\noc\booksim2-noc_speedup_study\booksim2-noc_speedup_study\tests\data\results\fixed_perm_growth_models_perm_4_3_6_1_8_7_2_5_0_peak_0p6_current_defaults\tmp_configs\ordered_fill_dim_order_s2205.config
Class 0:
Packet latency average = 11
	minimum = 11
	maximum = 11
	95th percentile = 11.5
	99th percentile = 11.5
Network latency average = 11
	minimum = 11
	maximum = 11
	95th percentile = 11.5
	99th percentile = 11.5
Slowest packet = 0
Flit latency average = 11
	minimum = 11
	maximum = 11
	95th percentile = 11.5
	99th percentile = 11.5
Slowest flit = 0
Fragmentation average = 0
	minimum = 0
	maximum = 0
Injected packet rate average = 0.0501481
	minimum = 0 (at node 0)
	maximum = 0.451333 (at node 4)
Accepted packet rate average = 0.050037
	minimum = 0 (at node 0)
	maximum = 0.450333 (at node 8)
Injected flit rate average = 0.0501481
	minimum = 0 (at node 0)
	maximum = 0.451333 (at node 4)
Accepted flit rate average= 0.050037
	minimum = 0 (at node 0)
	maximum = 0.450333 (at node 8)
Injected packet length average = 1
Accepted packet length average = 1
Total in-flight flits = 3 (0 measured)
====== Peak Queue Occupancy Statistics (Absolute Max) ======
  Overall Max VC Occupancy = 1
  Overall Max Buffer Occupancy = 1
latency change    = 1
throughput change = 1
Class 0:
Packet latency average = 11
	minimum = 11
	maximum = 11
	95th percentile = 11.5
	99th percentile = 11.5
Network latency average = 11
	minimum = 11
	maximum = 11
	95th percentile = 11.5
	99th percentile = 11.5
Slowest packet = 0
Flit latency average = 11
	minimum = 11
	maximum = 11
	95th percentile = 11.5
	99th percentile = 11.5
Slowest flit = 0
Fragmentation average = 0
	minimum = 0
	maximum = 0
Injected packet rate average = 0.0734444
	minimum = 0 (at node 1)
	maximum = 0.513667 (at node 4)
Accepted packet rate average = 0.0732222
	minimum = 0 (at node 0)
	maximum = 0.512333 (at node 8)
Injected flit rate average = 0.0734444
	minimum = 0 (at node 1)
	maximum = 0.513667 (at node 4)
Accepted flit rate average= 0.0732222
	minimum = 0 (at node 0)
	maximum = 0.512333 (at node 8)
Injected packet length average = 1
Accepted packet length average = 1
Total in-flight flits = 12 (0 measured)
====== Peak Queue Occupancy Statistics (Absolute Max) ======
  Overall Max VC Occupancy = 1
  Overall Max Buffer Occupancy = 1
latency change    = 0
throughput change = 0.316641
Warmed up ...Time used is 6000 cycles
Class 0:
Packet latency average = 11
	minimum = 11
	maximum = 11
	95th percentile = 11.5
	99th percentile = 11.5
Network latency average = 11
	minimum = 11
	maximum = 11
	95th percentile = 11.5
	99th percentile = 11.5
Slowest packet = 3966
Flit latency average = 11
	minimum = 11
	maximum = 11
	95th percentile = 11.5
	99th percentile = 11.5
Slowest flit = 3954
Fragmentation average = 0
	minimum = 0
	maximum = 0
Injected packet rate average = 0.14937
	minimum = 0 (at node 1)
	maximum = 0.599333 (at node 4)
Accepted packet rate average = 0.149
	minimum = 0 (at node 0)
	maximum = 0.599 (at node 8)
Injected flit rate average = 0.14937
	minimum = 0 (at node 1)
	maximum = 0.599333 (at node 4)
Accepted flit rate average= 0.149
	minimum = 0 (at node 0)
	maximum = 0.599 (at node 8)
Injected packet length average = 1
Accepted packet length average = 1
Total in-flight flits = 22 (22 measured)
====== Peak Queue Occupancy Statistics (Absolute Max) ======
  Overall Max VC Occupancy = 1
  Overall Max Buffer Occupancy = 1
latency change    = 0
throughput change = 0.508576
Class 0:
Packet latency average = 11
	minimum = 11
	maximum = 11
	95th percentile = 11.5
	99th percentile = 11.5
Network latency average = 11
	minimum = 11
	maximum = 11
	95th percentile = 11.5
	99th percentile = 11.5
Slowest packet = 3966
Flit latency average = 11
	minimum = 11
	maximum = 11
	95th percentile = 11.5
	99th percentile = 11.5
Slowest flit = 3954
Fragmentation average = 0
	minimum = 0
	maximum = 0
Injected packet rate average = 0.173759
	minimum = 0 (at node 1)
	maximum = 0.598 (at node 4)
Accepted packet rate average = 0.173685
	minimum = 0 (at node 0)
	maximum = 0.598667 (at node 8)
Injected flit rate average = 0.173759
	minimum = 0 (at node 1)
	maximum = 0.598 (at node 4)
Accepted flit rate average= 0.173685
	minimum = 0 (at node 0)
	maximum = 0.598667 (at node 8)
Injected packet length average = 1
Accepted packet length average = 1
Total in-flight flits = 16 (16 measured)
====== Peak Queue Occupancy Statistics (Absolute Max) ======
  Overall Max VC Occupancy = 1
  Overall Max Buffer Occupancy = 1
latency change    = 0
throughput change = 0.142126
Class 0:
Packet latency average = 11.4946
	minimum = 11
	maximum = 17
	95th percentile = 17.5
	99th percentile = 17.5
Network latency average = 11.4946
	minimum = 11
	maximum = 17
	95th percentile = 17.5
	99th percentile = 17.5
Slowest packet = 13355
Flit latency average = 11.4942
	minimum = 11
	maximum = 17
	95th percentile = 17.5
	99th percentile = 17.5
Slowest flit = 13355
Fragmentation average = 0
	minimum = 0
	maximum = 0
Injected packet rate average = 0.198099
	minimum = 0 (at node 1)
	maximum = 0.595 (at node 0)
Accepted packet rate average = 0.19784
	minimum = 0 (at node 0)
	maximum = 0.594889 (at node 8)
Injected flit rate average = 0.198099
	minimum = 0 (at node 1)
	maximum = 0.595 (at node 0)
Accepted flit rate average= 0.19784
	minimum = 0 (at node 0)
	maximum = 0.594889 (at node 8)
Injected packet length average = 1
Accepted packet length average = 1
Total in-flight flits = 33 (33 measured)
====== Peak Queue Occupancy Statistics (Absolute Max) ======
  Overall Max VC Occupancy = 1
  Overall Max Buffer Occupancy = 1
latency change    = 0.0430287
throughput change = 0.12209
Class 0:
Packet latency average = 12.0001
	minimum = 11
	maximum = 17
	95th percentile = 17.5
	99th percentile = 17.5
Network latency average = 12.0001
	minimum = 11
	maximum = 17
	95th percentile = 17.5
	99th percentile = 17.5
Slowest packet = 13355
Flit latency average = 11.9996
	minimum = 11
	maximum = 17
	95th percentile = 17.5
	99th percentile = 17.5
Slowest flit = 13355
Fragmentation average = 0
	minimum = 0
	maximum = 0
Injected packet rate average = 0.224111
	minimum = 0 (at node 1)
	maximum = 0.599333 (at node 0)
Accepted packet rate average = 0.223917
	minimum = 0 (at node 1)
	maximum = 0.5995 (at node 8)
Injected flit rate average = 0.224111
	minimum = 0 (at node 1)
	maximum = 0.599333 (at node 0)
Accepted flit rate average= 0.223917
	minimum = 0 (at node 1)
	maximum = 0.5995 (at node 8)
Injected packet length average = 1
Accepted packet length average = 1
Total in-flight flits = 33 (33 measured)
====== Peak Queue Occupancy Statistics (Absolute Max) ======
  Overall Max VC Occupancy = 1
  Overall Max Buffer Occupancy = 1
latency change    = 0.0421267
throughput change = 0.116459
Class 0:
Packet latency average = 12.3923
	minimum = 11
	maximum = 22
	95th percentile = 17.5
	99th percentile = 18.5
Network latency average = 12.3923
	minimum = 11
	maximum = 22
	95th percentile = 17.5
	99th percentile = 18.5
Slowest packet = 33163
Flit latency average = 12.3918
	minimum = 11
	maximum = 22
	95th percentile = 17.5
	99th percentile = 18.5
Slowest flit = 33163
Fragmentation average = 0
	minimum = 0
	maximum = 0
Injected packet rate average = 0.24997
	minimum = 0 (at node 3)
	maximum = 0.6026 (at node 0)
Accepted packet rate average = 0.249763
	minimum = 0 (at node 1)
	maximum = 0.602333 (at node 4)
Injected flit rate average = 0.24997
	minimum = 0 (at node 3)
	maximum = 0.6026 (at node 0)
Accepted flit rate average= 0.249763
	minimum = 0 (at node 1)
	maximum = 0.602333 (at node 4)
Injected packet length average = 1
Accepted packet length average = 1
Total in-flight flits = 40 (40 measured)
====== Peak Queue Occupancy Statistics (Absolute Max) ======
  Overall Max VC Occupancy = 1
  Overall Max Buffer Occupancy = 2
latency change    = 0.0316494
throughput change = 0.103483
Class 0:
Packet latency average = 28.6368
	minimum = 11
	maximum = 1453
	95th percentile = 85.5
	99th percentile = 441.5
Network latency average = 22.0066
	minimum = 11
	maximum = 1353
	95th percentile = 82.5
	99th percentile = 230.5
Slowest packet = 41394
Flit latency average = 22.0036
	minimum = 11
	maximum = 1353
	95th percentile = 82.5
	99th percentile = 230.5
Slowest flit = 41394
Fragmentation average = 0
	minimum = 0
	maximum = 0
Injected packet rate average = 0.27242
	minimum = 0 (at node 3)
	maximum = 0.603444 (at node 0)
Accepted packet rate average = 0.27116
	minimum = 0 (at node 1)
	maximum = 0.603444 (at node 4)
Injected flit rate average = 0.27242
	minimum = 0 (at node 3)
	maximum = 0.603444 (at node 0)
Accepted flit rate average= 0.27116
	minimum = 0 (at node 1)
	maximum = 0.603444 (at node 4)
Injected packet length average = 1
Accepted packet length average = 1
Total in-flight flits = 217 (217 measured)
====== Peak Queue Occupancy Statistics (Absolute Max) ======
  Overall Max VC Occupancy = 1
  Overall Max Buffer Occupancy = 48
latency change    = 0.567258
throughput change = 0.0789109
Class 0:
Packet latency average = 68.9955
	minimum = 11
	maximum = 1823
	95th percentile = 507.5
	99th percentile = 999.5
Network latency average = 29.5571
	minimum = 11
	maximum = 1467
	95th percentile = 95.5
	99th percentile = 383.5
Slowest packet = 41394
Flit latency average = 29.5531
	minimum = 11
	maximum = 1467
	95th percentile = 95.5
	99th percentile = 383.5
Slowest flit = 49209
Fragmentation average = 0
	minimum = 0
	maximum = 0
Injected packet rate average = 0.294619
	minimum = 0 (at node 3)
	maximum = 0.602952 (at node 0)
Accepted packet rate average = 0.293455
	minimum = 0 (at node 1)
	maximum = 0.602714 (at node 4)
Injected flit rate average = 0.294619
	minimum = 0 (at node 3)
	maximum = 0.602952 (at node 0)
Accepted flit rate average= 0.293455
	minimum = 0 (at node 1)
	maximum = 0.602714 (at node 4)
Injected packet length average = 1
Accepted packet length average = 1
Total in-flight flits = 233 (233 measured)
====== Peak Queue Occupancy Statistics (Absolute Max) ======
  Overall Max VC Occupancy = 1
  Overall Max Buffer Occupancy = 48
latency change    = 0.584947
throughput change = 0.0759726
Class 0:
Packet latency average = 114.98
	minimum = 11
	maximum = 2568
	95th percentile = 983.5
	99th percentile = 999.5
Network latency average = 34.0546
	minimum = 11
	maximum = 1467
	95th percentile = 132.5
	99th percentile = 452.5
Slowest packet = 41394
Flit latency average = 34.0505
	minimum = 11
	maximum = 1467
	95th percentile = 132.5
	99th percentile = 452.5
Slowest flit = 49209
Fragmentation average = 0
	minimum = 0
	maximum = 0
Injected packet rate average = 0.317833
	minimum = 0 (at node 6)
	maximum = 0.602833 (at node 0)
Accepted packet rate average = 0.316843
	minimum = 0 (at node 2)
	maximum = 0.60275 (at node 4)
Injected flit rate average = 0.317833
	minimum = 0 (at node 6)
	maximum = 0.602833 (at node 0)
Accepted flit rate average= 0.316843
	minimum = 0 (at node 2)
	maximum = 0.60275 (at node 4)
Injected packet length average = 1
Accepted packet length average = 1
Total in-flight flits = 227 (227 measured)
====== Peak Queue Occupancy Statistics (Absolute Max) ======
  Overall Max VC Occupancy = 1
  Overall Max Buffer Occupancy = 48
latency change    = 0.399934
throughput change = 0.0738145
Class 0:
Packet latency average = 162.725
	minimum = 11
	maximum = 2865
	95th percentile = 999.5
	99th percentile = 999.5
Network latency average = 36.9073
	minimum = 11
	maximum = 1467
	95th percentile = 141.5
	99th percentile = 514.5
Slowest packet = 41394
Flit latency average = 36.9035
	minimum = 11
	maximum = 1467
	95th percentile = 141.5
	99th percentile = 514.5
Slowest flit = 49209
Fragmentation average = 0
	minimum = 0
	maximum = 0
Injected packet rate average = 0.340988
	minimum = 0.0178519 (at node 6)
	maximum = 0.602185 (at node 0)
Accepted packet rate average = 0.340062
	minimum = 0.0177407 (at node 2)
	maximum = 0.602037 (at node 4)
Injected flit rate average = 0.340988
	minimum = 0.0178519 (at node 6)
	maximum = 0.602185 (at node 0)
Accepted flit rate average= 0.340062
	minimum = 0.0177407 (at node 2)
	maximum = 0.602037 (at node 4)
Injected packet length average = 1
Accepted packet length average = 1
Total in-flight flits = 239 (239 measured)
====== Peak Queue Occupancy Statistics (Absolute Max) ======
  Overall Max VC Occupancy = 1
  Overall Max Buffer Occupancy = 48
latency change    = 0.293408
throughput change = 0.0682792
Class 0:
Packet latency average = 216.524
	minimum = 11
	maximum = 3363
	95th percentile = 999.5
	99th percentile = 999.5
Network latency average = 42.7193
	minimum = 11
	maximum = 1859
	95th percentile = 168.5
	99th percentile = 551.5
Slowest packet = 41394
Flit latency average = 42.7154
	minimum = 11
	maximum = 1859
	95th percentile = 168.5
	99th percentile = 551.5
Slowest flit = 90179
Fragmentation average = 0
	minimum = 0
	maximum = 0
Injected packet rate average = 0.36327
	minimum = 0.0630667 (at node 6)
	maximum = 0.6027 (at node 0)
Accepted packet rate average = 0.361744
	minimum = 0.0589667 (at node 2)
	maximum = 0.602633 (at node 4)
Injected flit rate average = 0.36327
	minimum = 0.0630667 (at node 6)
	maximum = 0.6027 (at node 0)
Accepted flit rate average= 0.361744
	minimum = 0.0589667 (at node 2)
	maximum = 0.602633 (at node 4)
Injected packet length average = 1
Accepted packet length average = 1
Total in-flight flits = 426 (426 measured)
====== Peak Queue Occupancy Statistics (Absolute Max) ======
  Overall Max VC Occupancy = 1
  Overall Max Buffer Occupancy = 48
latency change    = 0.248467
throughput change = 0.0599393
Class 0:
Packet latency average = 284.136
	minimum = 11
	maximum = 4006
	95th percentile = 999.5
	99th percentile = 999.5
Network latency average = 48.1666
	minimum = 11
	maximum = 1859
	95th percentile = 187.5
	99th percentile = 643.5
Slowest packet = 41394
Flit latency average = 48.1627
	minimum = 11
	maximum = 1859
	95th percentile = 187.5
	99th percentile = 643.5
Slowest flit = 90179
Fragmentation average = 0
	minimum = 0
	maximum = 0
Injected packet rate average = 0.380468
	minimum = 0.105667 (at node 6)
	maximum = 0.602818 (at node 0)
Accepted packet rate average = 0.379091
	minimum = 0.102152 (at node 2)
	maximum = 0.602788 (at node 4)
Injected flit rate average = 0.380468
	minimum = 0.105667 (at node 6)
	maximum = 0.602818 (at node 0)
Accepted flit rate average= 0.379091
	minimum = 0.102152 (at node 2)
	maximum = 0.602788 (at node 4)
Injected packet length average = 1
Accepted packet length average = 1
Total in-flight flits = 422 (422 measured)
====== Peak Queue Occupancy Statistics (Absolute Max) ======
  Overall Max VC Occupancy = 1
  Overall Max Buffer Occupancy = 48
latency change    = 0.237959
throughput change = 0.0457581
Class 0:
Packet latency average = 359.456
	minimum = 11
	maximum = 4547
	95th percentile = 999.5
	99th percentile = 999.5
Network latency average = 52.447
	minimum = 11
	maximum = 1859
	95th percentile = 195.5
	99th percentile = 727.5
Slowest packet = 41394
Flit latency average = 52.4431
	minimum = 11
	maximum = 1859
	95th percentile = 195.5
	99th percentile = 727.5
Slowest flit = 90179
Fragmentation average = 0
	minimum = 0
	maximum = 0
Injected packet rate average = 0.395302
	minimum = 0.140361 (at node 6)
	maximum = 0.602528 (at node 0)
Accepted packet rate average = 0.394043
	minimum = 0.136833 (at node 2)
	maximum = 0.602528 (at node 4)
Injected flit rate average = 0.395302
	minimum = 0.140361 (at node 6)
	maximum = 0.602528 (at node 0)
Accepted flit rate average= 0.394043
	minimum = 0.136833 (at node 2)
	maximum = 0.602528 (at node 4)
Injected packet length average = 1
Accepted packet length average = 1
Total in-flight flits = 423 (423 measured)
====== Peak Queue Occupancy Statistics (Absolute Max) ======
  Overall Max VC Occupancy = 1
  Overall Max Buffer Occupancy = 48
latency change    = 0.209537
throughput change = 0.0379458
Class 0:
Packet latency average = 439.13
	minimum = 11
	maximum = 4762
	95th percentile = 999.5
	99th percentile = 999.5
Network latency average = 55.7034
	minimum = 11
	maximum = 1859
	95th percentile = 213.5
	99th percentile = 815.5
Slowest packet = 41394
Flit latency average = 55.6996
	minimum = 11
	maximum = 1859
	95th percentile = 212.5
	99th percentile = 815.5
Slowest flit = 90179
Fragmentation average = 0
	minimum = 0
	maximum = 0
Injected packet rate average = 0.407681
	minimum = 0.163769 (at node 6)
	maximum = 0.601846 (at node 0)
Accepted packet rate average = 0.406524
	minimum = 0.160718 (at node 2)
	maximum = 0.601718 (at node 4)
Injected flit rate average = 0.407681
	minimum = 0.163769 (at node 6)
	maximum = 0.601846 (at node 0)
Accepted flit rate average= 0.406524
	minimum = 0.160718 (at node 2)
	maximum = 0.601718 (at node 4)
Injected packet length average = 1
Accepted packet length average = 1
Total in-flight flits = 420 (420 measured)
====== Peak Queue Occupancy Statistics (Absolute Max) ======
  Overall Max VC Occupancy = 1
  Overall Max Buffer Occupancy = 48
latency change    = 0.181437
throughput change = 0.0307018
Class 0:
Packet latency average = 524.018
	minimum = 11
	maximum = 5406
	95th percentile = 999.5
	99th percentile = 999.5
Network latency average = 58.3495
	minimum = 11
	maximum = 1859
	95th percentile = 229.5
	99th percentile = 815.5
Slowest packet = 41394
Flit latency average = 58.3459
	minimum = 11
	maximum = 1859
	95th percentile = 229.5
	99th percentile = 815.5
Slowest flit = 90179
Fragmentation average = 0
	minimum = 0
	maximum = 0
Injected packet rate average = 0.418225
	minimum = 0.190619 (at node 6)
	maximum = 0.601405 (at node 0)
Accepted packet rate average = 0.417138
	minimum = 0.187881 (at node 2)
	maximum = 0.60131 (at node 4)
Injected flit rate average = 0.418225
	minimum = 0.190619 (at node 6)
	maximum = 0.601405 (at node 0)
Accepted flit rate average= 0.417138
	minimum = 0.187881 (at node 2)
	maximum = 0.60131 (at node 4)
Injected packet length average = 1
Accepted packet length average = 1
Total in-flight flits = 424 (424 measured)
====== Peak Queue Occupancy Statistics (Absolute Max) ======
  Overall Max VC Occupancy = 1
  Overall Max Buffer Occupancy = 48
latency change    = 0.161994
throughput change = 0.0254433
Class 0:
Packet latency average = 610.987
	minimum = 11
	maximum = 5893
	95th percentile = 999.5
	99th percentile = 999.5
Network latency average = 60.6297
	minimum = 11
	maximum = 1859
	95th percentile = 234.5
	99th percentile = 815.5
Slowest packet = 41394
Flit latency average = 60.6262
	minimum = 11
	maximum = 1859
	95th percentile = 234.5
	99th percentile = 815.5
Slowest flit = 90179
Fragmentation average = 0
	minimum = 0
	maximum = 0
Injected packet rate average = 0.427479
	minimum = 0.211556 (at node 6)
	maximum = 0.600756 (at node 0)
Accepted packet rate average = 0.426491
	minimum = 0.208756 (at node 2)
	maximum = 0.600778 (at node 4)
Injected flit rate average = 0.427479
	minimum = 0.211556 (at node 6)
	maximum = 0.600756 (at node 0)
Accepted flit rate average= 0.426491
	minimum = 0.208756 (at node 2)
	maximum = 0.600778 (at node 4)
Injected packet length average = 1
Accepted packet length average = 1
Total in-flight flits = 415 (415 measured)
====== Peak Queue Occupancy Statistics (Absolute Max) ======
  Overall Max VC Occupancy = 1
  Overall Max Buffer Occupancy = 48
latency change    = 0.142341
throughput change = 0.021932
Class 0:
Packet latency average = 699.358
	minimum = 11
	maximum = 6198
	95th percentile = 999.5
	99th percentile = 999.5
Network latency average = 62.4432
	minimum = 11
	maximum = 1859
	95th percentile = 240.5
	99th percentile = 850.5
Slowest packet = 41394
Flit latency average = 62.4399
	minimum = 11
	maximum = 1859
	95th percentile = 240.5
	99th percentile = 850.5
Slowest flit = 90179
Fragmentation average = 0
	minimum = 0
	maximum = 0
Injected packet rate average = 0.435507
	minimum = 0.226875 (at node 6)
	maximum = 0.601479 (at node 0)
Accepted packet rate average = 0.434567
	minimum = 0.224375 (at node 2)
	maximum = 0.601479 (at node 4)
Injected flit rate average = 0.435507
	minimum = 0.226875 (at node 6)
	maximum = 0.601479 (at node 0)
Accepted flit rate average= 0.434567
	minimum = 0.224375 (at node 2)
	maximum = 0.601479 (at node 4)
Injected packet length average = 1
Accepted packet length average = 1
Total in-flight flits = 419 (419 measured)
====== Peak Queue Occupancy Statistics (Absolute Max) ======
  Overall Max VC Occupancy = 1
  Overall Max Buffer Occupancy = 48
latency change    = 0.12636
throughput change = 0.0185835
Class 0:
Packet latency average = 790.123
	minimum = 11
	maximum = 6752
	95th percentile = 999.5
	99th percentile = 999.5
Network latency average = 64.0234
	minimum = 11
	maximum = 1859
	95th percentile = 247.5
	99th percentile = 859.5
Slowest packet = 41394
Flit latency average = 64.0203
	minimum = 11
	maximum = 1859
	95th percentile = 247.5
	99th percentile = 859.5
Slowest flit = 90179
Fragmentation average = 0
	minimum = 0
	maximum = 0
Injected packet rate average = 0.442584
	minimum = 0.245667 (at node 6)
	maximum = 0.601235 (at node 0)
Accepted packet rate average = 0.441695
	minimum = 0.243471 (at node 2)
	maximum = 0.601176 (at node 4)
Injected flit rate average = 0.442584
	minimum = 0.245667 (at node 6)
	maximum = 0.601235 (at node 0)
Accepted flit rate average= 0.441695
	minimum = 0.243471 (at node 2)
	maximum = 0.601176 (at node 4)
Injected packet length average = 1
Accepted packet length average = 1
Total in-flight flits = 422 (422 measured)
====== Peak Queue Occupancy Statistics (Absolute Max) ======
  Overall Max VC Occupancy = 1
  Overall Max Buffer Occupancy = 48
latency change    = 0.114874
throughput change = 0.0161375
Class 0:
Packet latency average = 881.942
	minimum = 11
	maximum = 7446
	95th percentile = 999.5
	99th percentile = 999.5
Network latency average = 65.4382
	minimum = 11
	maximum = 1859
	95th percentile = 259.5
	99th percentile = 883.5
Slowest packet = 41394
Flit latency average = 65.4352
	minimum = 11
	maximum = 1859
	95th percentile = 259.5
	99th percentile = 883.5
Slowest flit = 90179
Fragmentation average = 0
	minimum = 0
	maximum = 0
Injected packet rate average = 0.448842
	minimum = 0.259167 (at node 6)
	maximum = 0.600778 (at node 0)
Accepted packet rate average = 0.448006
	minimum = 0.25687 (at node 2)
	maximum = 0.600759 (at node 4)
Injected flit rate average = 0.448842
	minimum = 0.259167 (at node 6)
	maximum = 0.600778 (at node 0)
Accepted flit rate average= 0.448006
	minimum = 0.25687 (at node 2)
	maximum = 0.600759 (at node 4)
Injected packet length average = 1
Accepted packet length average = 1
Total in-flight flits = 420 (420 measured)
====== Peak Queue Occupancy Statistics (Absolute Max) ======
  Overall Max VC Occupancy = 1
  Overall Max Buffer Occupancy = 48
latency change    = 0.10411
throughput change = 0.0140873
Class 0:
Packet latency average = 974.356
	minimum = 11
	maximum = 7672
	95th percentile = 999.5
	99th percentile = 999.5
Network latency average = 66.5696
	minimum = 11
	maximum = 1859
	95th percentile = 269.5
	99th percentile = 903.5
Slowest packet = 41394
Flit latency average = 66.5668
	minimum = 11
	maximum = 1859
	95th percentile = 269.5
	99th percentile = 903.5
Slowest flit = 90179
Fragmentation average = 0
	minimum = 0
	maximum = 0
Injected packet rate average = 0.454671
	minimum = 0.26986 (at node 6)
	maximum = 0.601035 (at node 0)
Accepted packet rate average = 0.453881
	minimum = 0.267789 (at node 2)
	maximum = 0.600982 (at node 4)
Injected flit rate average = 0.454671
	minimum = 0.26986 (at node 6)
	maximum = 0.601035 (at node 0)
Accepted flit rate average= 0.453881
	minimum = 0.267789 (at node 2)
	maximum = 0.600982 (at node 4)
Injected packet length average = 1
Accepted packet length average = 1
Total in-flight flits = 419 (419 measured)
====== Peak Queue Occupancy Statistics (Absolute Max) ======
  Overall Max VC Occupancy = 1
  Overall Max Buffer Occupancy = 48
latency change    = 0.0948464
throughput change = 0.0129437
Class 0:
Packet latency average = 1068.71
	minimum = 11
	maximum = 8453
	95th percentile = 999.5
	99th percentile = 999.5
Network latency average = 67.6229
	minimum = 11
	maximum = 1859
	95th percentile = 273.5
	99th percentile = 907.5
Slowest packet = 41394
Flit latency average = 67.6201
	minimum = 11
	maximum = 1859
	95th percentile = 273.5
	99th percentile = 907.5
Slowest flit = 90179
Fragmentation average = 0
	minimum = 0
	maximum = 0
Injected packet rate average = 0.459785
	minimum = 0.2844 (at node 6)
	maximum = 0.600733 (at node 0)
Accepted packet rate average = 0.459033
	minimum = 0.2825 (at node 2)
	maximum = 0.600683 (at node 4)
Injected flit rate average = 0.459785
	minimum = 0.2844 (at node 6)
	maximum = 0.600733 (at node 0)
Accepted flit rate average= 0.459033
	minimum = 0.2825 (at node 2)
	maximum = 0.600683 (at node 4)
Injected packet length average = 1
Accepted packet length average = 1
Total in-flight flits = 420 (420 measured)
====== Peak Queue Occupancy Statistics (Absolute Max) ======
  Overall Max VC Occupancy = 1
  Overall Max Buffer Occupancy = 48
latency change    = 0.0882912
throughput change = 0.0112241
Draining all recorded packets ...
Class 0:
Remaining flits: 250529 251068 251548 252317 252401 252473 252519 252648 252721 252760 [...] (426 flits)
Measured flits: 250529 251068 251548 252317 252401 252473 252519 252648 252721 252760 [...] (385 flits)
Class 0:
Remaining flits: 255843 256082 256975 257224 257370 257442 257460 257470 257527 257570 [...] (419 flits)
Measured flits: 255843 256082 256975 257224 257370 257442 257460 257470 257527 257570 [...] (385 flits)
Class 0:
Remaining flits: 261732 261812 262210 262244 262348 262428 262470 262658 262662 262700 [...] (420 flits)
Measured flits: 261732 261812 262210 262244 262348 262428 262470 262658 262662 262700 [...] (386 flits)
Class 0:
Remaining flits: 265730 266671 267107 267209 267334 267385 267555 267573 267787 267800 [...] (422 flits)
Measured flits: 265730 266671 267107 267209 267334 267385 267555 267573 267787 267800 [...] (384 flits)
Class 0:
Remaining flits: 271402 271594 272142 272170 272198 272407 272518 272588 272649 272778 [...] (419 flits)
Measured flits: 271402 271594 272142 272170 272198 272407 272518 272588 272649 272778 [...] (386 flits)
Class 0:
Remaining flits: 275823 276884 277037 277050 277129 277280 277335 277518 277610 277641 [...] (427 flits)
Measured flits: 275823 276884 277037 277050 277129 277280 277335 277518 277610 277641 [...] (384 flits)
Class 0:
Remaining flits: 280084 281171 281178 281186 282034 282184 282214 282269 282408 282414 [...] (421 flits)
Measured flits: 280084 281171 281178 281186 282034 282184 282214 282269 282408 282414 [...] (226 flits)
Class 0:
Remaining flits: 286930 286987 287042 287166 287194 287224 287412 287577 287591 287606 [...] (429 flits)
Measured flits: 287577 287591 287687 287880 287907 287926 288128 288175 288306 288420 [...] (192 flits)
Class 0:
Remaining flits: 291929 291994 292154 292165 292187 292385 292397 292535 292608 292621 [...] (421 flits)
Measured flits: 292535 292608 292819 292847 293002 293083 293325 293504 293566 293727 [...] (84 flits)
Class 0:
Remaining flits: 296354 296900 296996 297056 297126 297225 297269 297408 297459 297485 [...] (425 flits)
Measured flits: 297408 297650 (2 flits)
Draining remaining packets ...
Time taken is 76249 cycles
====== Overall Traffic Statistics ======
====== Traffic class 0 ======
Packet latency average = 1444.33 (1 samples)
	minimum = 11 (1 samples)
	maximum = 10080 (1 samples)
Network latency average = 75.3103 (1 samples)
	minimum = 11 (1 samples)
	maximum = 1859 (1 samples)
Flit latency average = 70.726 (1 samples)
	minimum = 11 (1 samples)
	maximum = 1859 (1 samples)
Fragmentation average = 0 (1 samples)
	minimum = 0 (1 samples)
	maximum = 0 (1 samples)
Injected packet rate average = 0.459785 (1 samples)
	minimum = 0.2844 (1 samples)
	maximum = 0.600733 (1 samples)
Accepted packet rate average = 0.459033 (1 samples)
	minimum = 0.2825 (1 samples)
	maximum = 0.600683 (1 samples)
Injected flit rate average = 0.459785 (1 samples)
	minimum = 0.2844 (1 samples)
	maximum = 0.600733 (1 samples)
Accepted flit rate average = 0.459033 (1 samples)
	minimum = 0.2825 (1 samples)
	maximum = 0.600683 (1 samples)
Injected packet size average = 1 (1 samples)
Accepted packet size average = 1 (1 samples)
Hops average = 3.62244 (1 samples)
Total run time 27.9672

