BEGIN Configuration File: D:\noc_huawei\noc\booksim2-noc_speedup_study\booksim2-noc_speedup_study\tests\data\results\fixed_perm_growth_models_perm_4_3_6_1_8_7_2_5_0_peak_0p6_current_defaults\tmp_configs\ordered_fill_racke_tree_s2202.config
num_vcs     = 48;
vc_buf_size = 16;
wait_for_tail_credit = 1;

vc_allocator = islip;
sw_allocator = islip;
alloc_iters  = 16;

credit_delay   = 2;
routing_delay  = 0;
vc_alloc_delay = 1;
sw_alloc_delay = 1;
st_final_delay = 1;

input_speedup     = 1;
output_speedup    = 1;
internal_speedup  = 2.0;

sim_type = latency;
latency_thres  = 100000.0;
sim_count      = 1;
queue_sample_period_cycles = 0;

topology = mesh;
k  = 3;
n  = 2;

hybrid_transition_mode = linear_prob;
hybrid_xy_low_threshold = 0.35;
hybrid_racke_high_threshold = 0.65;
hybrid_buffer_soft_threshold = 0.50;
hybrid_buffer_hard_threshold = 0.85;
hybrid_buffer_release_threshold = 0.35;
hybrid_rate_soft_threshold = 0.55;
hybrid_rate_hard_threshold = 0.90;
hybrid_rate_weight = 0.25;
hybrid_congestion_alpha = 0.25;
hybrid_racke_increase_step = 0.25;
hybrid_racke_decrease_step = 0.10;
hybrid_epoch_cycles = 200;
hybrid_hold_cycles = 600;
hybrid_enable_midflight_override = 1;
hybrid_feedback_delay_per_hop = 1;
hybrid_flow_increase_step = 0.20;
hybrid_flow_decrease_step = 0.08;
hybrid_flow_hard_threshold = 0.95;

packet_size = 1;

scheduled_injection_rates = {0.10,0.20,0.30};
scheduled_phase_cycles = {1000,1000,1000};
scheduled_default_phase_cycles = 1000;

custom_perm_array = {4,3,6,1,8,7,2,5,0};
warmup_periods = 2;
seed = 2202;
hybrid_flow_hotspot_alpha = 0.85;
injection_process = ordered_fill;
perm_seed = 2202;
ordered_injection_phase_cycles = {3000,3000,3000,3000,3000,3000,3000,3000,3000,3000,3000,3000,3000,3000};
routing_function = racke_tree;
injection_rate = 0.6;
max_samples = 22;
ordered_injection_source_order = {4,0,7,2,8,1,5,3,6};
hybrid_flow_hotspot_threshold = 1.1;
ordered_injection_flow_peak_rate = 0.6;
ordered_injection_coefficients = {0.0833333333333333,0.166666666666667,0.25,0.333333333333333,0.416666666666667,0.5,0.583333333333333,0.666666666666667,0.75,0.833333333333333,0.916666666666667,1.0,1.0,1.0};
hybrid_stats_window_cycles = 3000;
traffic = custom_perm;
sample_period = 3000;

END Configuration File: D:\noc_huawei\noc\booksim2-noc_speedup_study\booksim2-noc_speedup_study\tests\data\results\fixed_perm_growth_models_perm_4_3_6_1_8_7_2_5_0_peak_0p6_current_defaults\tmp_configs\ordered_fill_racke_tree_s2202.config
Class 0:
Packet latency average = 13.2676
	minimum = 11
	maximum = 19
	95th percentile = 18.5
	99th percentile = 19.5
Network latency average = 13.2676
	minimum = 11
	maximum = 19
	95th percentile = 18.5
	99th percentile = 19.5
Slowest packet = 25
Flit latency average = 13.2676
	minimum = 11
	maximum = 19
	95th percentile = 18.5
	99th percentile = 19.5
Slowest flit = 25
Fragmentation average = 0
	minimum = 0
	maximum = 0
Injected packet rate average = 0.0497778
	minimum = 0 (at node 0)
	maximum = 0.448 (at node 4)
Accepted packet rate average = 0.0495556
	minimum = 0 (at node 0)
	maximum = 0.446 (at node 8)
Injected flit rate average = 0.0497778
	minimum = 0 (at node 0)
	maximum = 0.448 (at node 4)
Accepted flit rate average= 0.0495556
	minimum = 0 (at node 0)
	maximum = 0.446 (at node 8)
Injected packet length average = 1
Accepted packet length average = 1
Total in-flight flits = 6 (0 measured)
====== Peak Queue Occupancy Statistics (Absolute Max) ======
  Overall Max VC Occupancy = 1
  Overall Max Buffer Occupancy = 2
latency change    = 1
throughput change = 1
Class 0:
Packet latency average = 13.2755
	minimum = 11
	maximum = 19
	95th percentile = 18.5
	99th percentile = 19.5
Network latency average = 13.2755
	minimum = 11
	maximum = 19
	95th percentile = 18.5
	99th percentile = 19.5
Slowest packet = 25
Flit latency average = 13.2755
	minimum = 11
	maximum = 19
	95th percentile = 18.5
	99th percentile = 19.5
Slowest flit = 25
Fragmentation average = 0
	minimum = 0
	maximum = 0
Injected packet rate average = 0.0744815
	minimum = 0 (at node 1)
	maximum = 0.523667 (at node 4)
Accepted packet rate average = 0.0742778
	minimum = 0 (at node 0)
	maximum = 0.5225 (at node 8)
Injected flit rate average = 0.0744815
	minimum = 0 (at node 1)
	maximum = 0.523667 (at node 4)
Accepted flit rate average= 0.0742778
	minimum = 0 (at node 0)
	maximum = 0.5225 (at node 8)
Injected packet length average = 1
Accepted packet length average = 1
Total in-flight flits = 11 (0 measured)
====== Peak Queue Occupancy Statistics (Absolute Max) ======
  Overall Max VC Occupancy = 1
  Overall Max Buffer Occupancy = 2
latency change    = 0.000597256
throughput change = 0.332835
Warmed up ...Time used is 6000 cycles
Class 0:
Packet latency average = 13.345
	minimum = 11
	maximum = 20
	95th percentile = 18.5
	99th percentile = 19.5
Network latency average = 13.345
	minimum = 11
	maximum = 20
	95th percentile = 18.5
	99th percentile = 19.5
Slowest packet = 7647
Flit latency average = 13.3483
	minimum = 11
	maximum = 20
	95th percentile = 18.5
	99th percentile = 19.5
Slowest flit = 7647
Fragmentation average = 0
	minimum = 0
	maximum = 0
Injected packet rate average = 0.148037
	minimum = 0 (at node 1)
	maximum = 0.595 (at node 4)
Accepted packet rate average = 0.147815
	minimum = 0 (at node 0)
	maximum = 0.595333 (at node 8)
Injected flit rate average = 0.148037
	minimum = 0 (at node 1)
	maximum = 0.595 (at node 4)
Accepted flit rate average= 0.147815
	minimum = 0 (at node 0)
	maximum = 0.595333 (at node 8)
Injected packet length average = 1
Accepted packet length average = 1
Total in-flight flits = 17 (17 measured)
====== Peak Queue Occupancy Statistics (Absolute Max) ======
  Overall Max VC Occupancy = 1
  Overall Max Buffer Occupancy = 2
latency change    = 0.00520664
throughput change = 0.497494
Class 0:
Packet latency average = 13.4652
	minimum = 11
	maximum = 21
	95th percentile = 18.5
	99th percentile = 19.5
Network latency average = 13.4652
	minimum = 11
	maximum = 21
	95th percentile = 18.5
	99th percentile = 19.5
Slowest packet = 9406
Flit latency average = 13.4664
	minimum = 11
	maximum = 21
	95th percentile = 18.5
	99th percentile = 19.5
Slowest flit = 9406
Fragmentation average = 0
	minimum = 0
	maximum = 0
Injected packet rate average = 0.174926
	minimum = 0 (at node 1)
	maximum = 0.598833 (at node 4)
Accepted packet rate average = 0.174611
	minimum = 0 (at node 0)
	maximum = 0.598333 (at node 8)
Injected flit rate average = 0.174926
	minimum = 0 (at node 1)
	maximum = 0.598833 (at node 4)
Accepted flit rate average= 0.174611
	minimum = 0 (at node 0)
	maximum = 0.598333 (at node 8)
Injected packet length average = 1
Accepted packet length average = 1
Total in-flight flits = 28 (28 measured)
====== Peak Queue Occupancy Statistics (Absolute Max) ======
  Overall Max VC Occupancy = 1
  Overall Max Buffer Occupancy = 2
latency change    = 0.0089266
throughput change = 0.153463
Class 0:
Packet latency average = 13.8527
	minimum = 11
	maximum = 21
	95th percentile = 18.5
	99th percentile = 19.5
Network latency average = 13.8527
	minimum = 11
	maximum = 21
	95th percentile = 18.5
	99th percentile = 19.5
Slowest packet = 9406
Flit latency average = 13.8532
	minimum = 11
	maximum = 21
	95th percentile = 18.5
	99th percentile = 19.5
Slowest flit = 9406
Fragmentation average = 0
	minimum = 0
	maximum = 0
Injected packet rate average = 0.19942
	minimum = 0 (at node 1)
	maximum = 0.600778 (at node 4)
Accepted packet rate average = 0.199222
	minimum = 0 (at node 0)
	maximum = 0.600889 (at node 8)
Injected flit rate average = 0.19942
	minimum = 0 (at node 1)
	maximum = 0.600778 (at node 4)
Accepted flit rate average= 0.199222
	minimum = 0 (at node 0)
	maximum = 0.600889 (at node 8)
Injected packet length average = 1
Accepted packet length average = 1
Total in-flight flits = 27 (27 measured)
====== Peak Queue Occupancy Statistics (Absolute Max) ======
  Overall Max VC Occupancy = 1
  Overall Max Buffer Occupancy = 2
latency change    = 0.0279764
throughput change = 0.123536
Class 0:
Packet latency average = 14.2288
	minimum = 11
	maximum = 22
	95th percentile = 19.5
	99th percentile = 20.5
Network latency average = 14.2288
	minimum = 11
	maximum = 22
	95th percentile = 19.5
	99th percentile = 20.5
Slowest packet = 24805
Flit latency average = 14.229
	minimum = 11
	maximum = 22
	95th percentile = 19.5
	99th percentile = 20.5
Slowest flit = 24805
Fragmentation average = 0
	minimum = 0
	maximum = 0
Injected packet rate average = 0.223806
	minimum = 0 (at node 1)
	maximum = 0.5975 (at node 0)
Accepted packet rate average = 0.223528
	minimum = 0 (at node 1)
	maximum = 0.59725 (at node 8)
Injected flit rate average = 0.223806
	minimum = 0 (at node 1)
	maximum = 0.5975 (at node 0)
Accepted flit rate average= 0.223528
	minimum = 0 (at node 1)
	maximum = 0.59725 (at node 8)
Injected packet length average = 1
Accepted packet length average = 1
Total in-flight flits = 41 (41 measured)
====== Peak Queue Occupancy Statistics (Absolute Max) ======
  Overall Max VC Occupancy = 1
  Overall Max Buffer Occupancy = 2
latency change    = 0.0264337
throughput change = 0.108736
Class 0:
Packet latency average = 14.527
	minimum = 11
	maximum = 23
	95th percentile = 19.5
	99th percentile = 20.5
Network latency average = 14.527
	minimum = 11
	maximum = 23
	95th percentile = 19.5
	99th percentile = 20.5
Slowest packet = 32377
Flit latency average = 14.527
	minimum = 11
	maximum = 23
	95th percentile = 19.5
	99th percentile = 20.5
Slowest flit = 32377
Fragmentation average = 0
	minimum = 0
	maximum = 0
Injected packet rate average = 0.248533
	minimum = 0 (at node 3)
	maximum = 0.5992 (at node 4)
Accepted packet rate average = 0.24823
	minimum = 0 (at node 1)
	maximum = 0.599133 (at node 8)
Injected flit rate average = 0.248533
	minimum = 0 (at node 3)
	maximum = 0.5992 (at node 4)
Accepted flit rate average= 0.24823
	minimum = 0 (at node 1)
	maximum = 0.599133 (at node 8)
Injected packet length average = 1
Accepted packet length average = 1
Total in-flight flits = 52 (52 measured)
====== Peak Queue Occupancy Statistics (Absolute Max) ======
  Overall Max VC Occupancy = 1
  Overall Max Buffer Occupancy = 2
latency change    = 0.0205233
throughput change = 0.0995121
Class 0:
Packet latency average = 14.7256
	minimum = 11
	maximum = 24
	95th percentile = 19.5
	99th percentile = 20.5
Network latency average = 14.7256
	minimum = 11
	maximum = 24
	95th percentile = 19.5
	99th percentile = 20.5
Slowest packet = 39749
Flit latency average = 14.7255
	minimum = 11
	maximum = 24
	95th percentile = 19.5
	99th percentile = 20.5
Slowest flit = 39749
Fragmentation average = 0
	minimum = 0
	maximum = 0
Injected packet rate average = 0.273772
	minimum = 0 (at node 3)
	maximum = 0.598833 (at node 0)
Accepted packet rate average = 0.273488
	minimum = 0 (at node 1)
	maximum = 0.598667 (at node 4)
Injected flit rate average = 0.273772
	minimum = 0 (at node 3)
	maximum = 0.598833 (at node 0)
Accepted flit rate average= 0.273488
	minimum = 0 (at node 1)
	maximum = 0.598667 (at node 4)
Injected packet length average = 1
Accepted packet length average = 1
Total in-flight flits = 57 (57 measured)
====== Peak Queue Occupancy Statistics (Absolute Max) ======
  Overall Max VC Occupancy = 1
  Overall Max Buffer Occupancy = 2
latency change    = 0.0134866
throughput change = 0.0923553
Class 0:
Packet latency average = 14.8593
	minimum = 11
	maximum = 24
	95th percentile = 19.5
	99th percentile = 21.5
Network latency average = 14.8593
	minimum = 11
	maximum = 24
	95th percentile = 19.5
	99th percentile = 21.5
Slowest packet = 39749
Flit latency average = 14.8592
	minimum = 11
	maximum = 24
	95th percentile = 19.5
	99th percentile = 21.5
Slowest flit = 39749
Fragmentation average = 0
	minimum = 0
	maximum = 0
Injected packet rate average = 0.298915
	minimum = 0 (at node 3)
	maximum = 0.600333 (at node 0)
Accepted packet rate average = 0.298624
	minimum = 0 (at node 1)
	maximum = 0.6 (at node 4)
Injected flit rate average = 0.298915
	minimum = 0 (at node 3)
	maximum = 0.600333 (at node 0)
Accepted flit rate average= 0.298624
	minimum = 0 (at node 1)
	maximum = 0.6 (at node 4)
Injected packet length average = 1
Accepted packet length average = 1
Total in-flight flits = 66 (66 measured)
====== Peak Queue Occupancy Statistics (Absolute Max) ======
  Overall Max VC Occupancy = 1
  Overall Max Buffer Occupancy = 2
latency change    = 0.00899832
throughput change = 0.0841749
Class 0:
Packet latency average = 14.9401
	minimum = 11
	maximum = 26
	95th percentile = 19.5
	99th percentile = 21.5
Network latency average = 14.9401
	minimum = 11
	maximum = 26
	95th percentile = 19.5
	99th percentile = 21.5
Slowest packet = 64924
Flit latency average = 14.9401
	minimum = 11
	maximum = 26
	95th percentile = 19.5
	99th percentile = 21.5
Slowest flit = 64924
Fragmentation average = 0
	minimum = 0
	maximum = 0
Injected packet rate average = 0.323551
	minimum = 0 (at node 6)
	maximum = 0.598208 (at node 4)
Accepted packet rate average = 0.323231
	minimum = 0 (at node 2)
	maximum = 0.598167 (at node 8)
Injected flit rate average = 0.323551
	minimum = 0 (at node 6)
	maximum = 0.598208 (at node 4)
Accepted flit rate average= 0.323231
	minimum = 0 (at node 2)
	maximum = 0.598167 (at node 8)
Injected packet length average = 1
Accepted packet length average = 1
Total in-flight flits = 80 (80 measured)
====== Peak Queue Occupancy Statistics (Absolute Max) ======
  Overall Max VC Occupancy = 1
  Overall Max Buffer Occupancy = 2
latency change    = 0.00541111
throughput change = 0.0761285
Class 0:
Packet latency average = 15.0283
	minimum = 11
	maximum = 26
	95th percentile = 20.5
	99th percentile = 21.5
Network latency average = 15.0283
	minimum = 11
	maximum = 26
	95th percentile = 20.5
	99th percentile = 21.5
Slowest packet = 64924
Flit latency average = 15.0283
	minimum = 11
	maximum = 26
	95th percentile = 20.5
	99th percentile = 21.5
Slowest flit = 64924
Fragmentation average = 0
	minimum = 0
	maximum = 0
Injected packet rate average = 0.348852
	minimum = 0.0171852 (at node 6)
	maximum = 0.599222 (at node 4)
Accepted packet rate average = 0.34856
	minimum = 0.0170741 (at node 2)
	maximum = 0.599222 (at node 8)
Injected flit rate average = 0.348852
	minimum = 0.0171852 (at node 6)
	maximum = 0.599222 (at node 4)
Accepted flit rate average= 0.34856
	minimum = 0.0170741 (at node 2)
	maximum = 0.599222 (at node 8)
Injected packet length average = 1
Accepted packet length average = 1
Total in-flight flits = 82 (82 measured)
====== Peak Queue Occupancy Statistics (Absolute Max) ======
  Overall Max VC Occupancy = 1
  Overall Max Buffer Occupancy = 3
latency change    = 0.0058684
throughput change = 0.0726653
Class 0:
Packet latency average = 15.1708
	minimum = 11
	maximum = 26
	95th percentile = 20.5
	99th percentile = 21.5
Network latency average = 15.1708
	minimum = 11
	maximum = 26
	95th percentile = 20.5
	99th percentile = 21.5
Slowest packet = 64924
Flit latency average = 15.1707
	minimum = 11
	maximum = 26
	95th percentile = 20.5
	99th percentile = 21.5
Slowest flit = 64924
Fragmentation average = 0
	minimum = 0
	maximum = 0
Injected packet rate average = 0.373852
	minimum = 0.0755 (at node 6)
	maximum = 0.599033 (at node 4)
Accepted packet rate average = 0.373637
	minimum = 0.0752667 (at node 2)
	maximum = 0.599133 (at node 8)
Injected flit rate average = 0.373852
	minimum = 0.0755 (at node 6)
	maximum = 0.599033 (at node 4)
Accepted flit rate average= 0.373637
	minimum = 0.0752667 (at node 2)
	maximum = 0.599133 (at node 8)
Injected packet length average = 1
Accepted packet length average = 1
Total in-flight flits = 69 (69 measured)
====== Peak Queue Occupancy Statistics (Absolute Max) ======
  Overall Max VC Occupancy = 1
  Overall Max Buffer Occupancy = 3
latency change    = 0.00939011
throughput change = 0.0671169
Class 0:
Packet latency average = 15.2747
	minimum = 11
	maximum = 26
	95th percentile = 20.5
	99th percentile = 22.5
Network latency average = 15.2747
	minimum = 11
	maximum = 26
	95th percentile = 20.5
	99th percentile = 22.5
Slowest packet = 64924
Flit latency average = 15.2746
	minimum = 11
	maximum = 26
	95th percentile = 20.5
	99th percentile = 22.5
Slowest flit = 64924
Fragmentation average = 0
	minimum = 0
	maximum = 0
Injected packet rate average = 0.394455
	minimum = 0.123697 (at node 6)
	maximum = 0.599333 (at node 4)
Accepted packet rate average = 0.394263
	minimum = 0.123485 (at node 2)
	maximum = 0.599303 (at node 8)
Injected flit rate average = 0.394455
	minimum = 0.123697 (at node 6)
	maximum = 0.599333 (at node 4)
Accepted flit rate average= 0.394263
	minimum = 0.123485 (at node 2)
	maximum = 0.599303 (at node 8)
Injected packet length average = 1
Accepted packet length average = 1
Total in-flight flits = 68 (68 measured)
====== Peak Queue Occupancy Statistics (Absolute Max) ======
  Overall Max VC Occupancy = 1
  Overall Max Buffer Occupancy = 3
latency change    = 0.00680422
throughput change = 0.0523143
Class 0:
Packet latency average = 15.3516
	minimum = 11
	maximum = 26
	95th percentile = 20.5
	99th percentile = 22.5
Network latency average = 15.3516
	minimum = 11
	maximum = 26
	95th percentile = 20.5
	99th percentile = 22.5
Slowest packet = 64924
Flit latency average = 15.3516
	minimum = 11
	maximum = 26
	95th percentile = 20.5
	99th percentile = 22.5
Slowest flit = 64924
Fragmentation average = 0
	minimum = 0
	maximum = 0
Injected packet rate average = 0.411571
	minimum = 0.164306 (at node 6)
	maximum = 0.598389 (at node 0)
Accepted packet rate average = 0.411293
	minimum = 0.163944 (at node 2)
	maximum = 0.59825 (at node 4)
Injected flit rate average = 0.411571
	minimum = 0.164306 (at node 6)
	maximum = 0.598389 (at node 0)
Accepted flit rate average= 0.411293
	minimum = 0.163944 (at node 2)
	maximum = 0.59825 (at node 4)
Injected packet length average = 1
Accepted packet length average = 1
Total in-flight flits = 101 (101 measured)
====== Peak Queue Occupancy Statistics (Absolute Max) ======
  Overall Max VC Occupancy = 1
  Overall Max Buffer Occupancy = 3
latency change    = 0.0050112
throughput change = 0.0414074
Class 0:
Packet latency average = 15.4099
	minimum = 11
	maximum = 26
	95th percentile = 20.5
	99th percentile = 22.5
Network latency average = 15.4099
	minimum = 11
	maximum = 26
	95th percentile = 20.5
	99th percentile = 22.5
Slowest packet = 64924
Flit latency average = 15.4099
	minimum = 11
	maximum = 26
	95th percentile = 20.5
	99th percentile = 22.5
Slowest flit = 64924
Fragmentation average = 0
	minimum = 0
	maximum = 0
Injected packet rate average = 0.425789
	minimum = 0.197103 (at node 6)
	maximum = 0.598103 (at node 0)
Accepted packet rate average = 0.425584
	minimum = 0.196897 (at node 2)
	maximum = 0.598 (at node 4)
Injected flit rate average = 0.425789
	minimum = 0.197103 (at node 6)
	maximum = 0.598103 (at node 0)
Accepted flit rate average= 0.425584
	minimum = 0.196897 (at node 2)
	maximum = 0.598 (at node 4)
Injected packet length average = 1
Accepted packet length average = 1
Total in-flight flits = 83 (83 measured)
====== Peak Queue Occupancy Statistics (Absolute Max) ======
  Overall Max VC Occupancy = 1
  Overall Max Buffer Occupancy = 3
latency change    = 0.00378324
throughput change = 0.0335794
Class 0:
Packet latency average = 15.4614
	minimum = 11
	maximum = 26
	95th percentile = 20.5
	99th percentile = 22.5
Network latency average = 15.4614
	minimum = 11
	maximum = 26
	95th percentile = 20.5
	99th percentile = 22.5
Slowest packet = 64924
Flit latency average = 15.4613
	minimum = 11
	maximum = 26
	95th percentile = 20.5
	99th percentile = 22.5
Slowest flit = 64924
Fragmentation average = 0
	minimum = 0
	maximum = 0
Injected packet rate average = 0.438442
	minimum = 0.227119 (at node 6)
	maximum = 0.599048 (at node 0)
Accepted packet rate average = 0.438246
	minimum = 0.226833 (at node 2)
	maximum = 0.598952 (at node 4)
Injected flit rate average = 0.438442
	minimum = 0.227119 (at node 6)
	maximum = 0.599048 (at node 0)
Accepted flit rate average= 0.438246
	minimum = 0.226833 (at node 2)
	maximum = 0.598952 (at node 4)
Injected packet length average = 1
Accepted packet length average = 1
Total in-flight flits = 85 (85 measured)
====== Peak Queue Occupancy Statistics (Absolute Max) ======
  Overall Max VC Occupancy = 1
  Overall Max Buffer Occupancy = 3
latency change    = 0.00332797
throughput change = 0.0288924
Draining all recorded packets ...
Draining remaining packets ...
Time taken is 48042 cycles
====== Overall Traffic Statistics ======
====== Traffic class 0 ======
Packet latency average = 15.462 (1 samples)
	minimum = 11 (1 samples)
	maximum = 26 (1 samples)
Network latency average = 15.462 (1 samples)
	minimum = 11 (1 samples)
	maximum = 26 (1 samples)
Flit latency average = 15.4623 (1 samples)
	minimum = 11 (1 samples)
	maximum = 26 (1 samples)
Fragmentation average = 0 (1 samples)
	minimum = 0 (1 samples)
	maximum = 0 (1 samples)
Injected packet rate average = 0.438442 (1 samples)
	minimum = 0.227119 (1 samples)
	maximum = 0.599048 (1 samples)
Accepted packet rate average = 0.438246 (1 samples)
	minimum = 0.226833 (1 samples)
	maximum = 0.598952 (1 samples)
Injected flit rate average = 0.438442 (1 samples)
	minimum = 0.227119 (1 samples)
	maximum = 0.599048 (1 samples)
Accepted flit rate average = 0.438246 (1 samples)
	minimum = 0.226833 (1 samples)
	maximum = 0.598952 (1 samples)
Injected packet size average = 1 (1 samples)
Accepted packet size average = 1 (1 samples)
Hops average = 4.06434 (1 samples)
Total run time 6.30352

