BEGIN Configuration File: D:\noc_huawei\noc\booksim2-noc_speedup_study\booksim2-noc_speedup_study\tests\data\results\fixed_perm_growth_models_perm_4_3_6_1_8_7_2_5_0_peak_0p6_current_defaults\tmp_configs\ordered_fill_dim_order_s2203.config
num_vcs     = 48;
vc_buf_size = 16;
wait_for_tail_credit = 1;

vc_allocator = islip;
sw_allocator = islip;
alloc_iters  = 16;

credit_delay   = 2;
routing_delay  = 0;
vc_alloc_delay = 1;
sw_alloc_delay = 1;
st_final_delay = 1;

input_speedup     = 1;
output_speedup    = 1;
internal_speedup  = 2.0;

sim_type = latency;
latency_thres  = 100000.0;
sim_count      = 1;
queue_sample_period_cycles = 0;

topology = mesh;
k  = 3;
n  = 2;

hybrid_transition_mode = linear_prob;
hybrid_xy_low_threshold = 0.35;
hybrid_racke_high_threshold = 0.65;
hybrid_buffer_soft_threshold = 0.50;
hybrid_buffer_hard_threshold = 0.85;
hybrid_buffer_release_threshold = 0.35;
hybrid_rate_soft_threshold = 0.55;
hybrid_rate_hard_threshold = 0.90;
hybrid_rate_weight = 0.25;
hybrid_congestion_alpha = 0.25;
hybrid_racke_increase_step = 0.25;
hybrid_racke_decrease_step = 0.10;
hybrid_epoch_cycles = 200;
hybrid_hold_cycles = 600;
hybrid_enable_midflight_override = 1;
hybrid_feedback_delay_per_hop = 1;
hybrid_flow_increase_step = 0.20;
hybrid_flow_decrease_step = 0.08;
hybrid_flow_hard_threshold = 0.95;

packet_size = 1;

scheduled_injection_rates = {0.10,0.20,0.30};
scheduled_phase_cycles = {1000,1000,1000};
scheduled_default_phase_cycles = 1000;

custom_perm_array = {4,3,6,1,8,7,2,5,0};
warmup_periods = 2;
seed = 2203;
hybrid_flow_hotspot_alpha = 0.85;
injection_process = ordered_fill;
perm_seed = 2203;
ordered_injection_phase_cycles = {3000,3000,3000,3000,3000,3000,3000,3000,3000,3000,3000,3000,3000,3000};
routing_function = dim_order;
injection_rate = 0.6;
max_samples = 22;
ordered_injection_source_order = {4,0,7,2,8,1,5,3,6};
hybrid_flow_hotspot_threshold = 1.1;
ordered_injection_flow_peak_rate = 0.6;
ordered_injection_coefficients = {0.0833333333333333,0.166666666666667,0.25,0.333333333333333,0.416666666666667,0.5,0.583333333333333,0.666666666666667,0.75,0.833333333333333,0.916666666666667,1.0,1.0,1.0};
hybrid_stats_window_cycles = 3000;
traffic = custom_perm;
sample_period = 3000;

END Configuration File: D:\noc_huawei\noc\booksim2-noc_speedup_study\booksim2-noc_speedup_study\tests\data\results\fixed_perm_growth_models_perm_4_3_6_1_8_7_2_5_0_peak_0p6_current_defaults\tmp_configs\ordered_fill_dim_order_s2203.config
Class 0:
Packet latency average = 11
	minimum = 11
	maximum = 11
	95th percentile = 11.5
	99th percentile = 11.5
Network latency average = 11
	minimum = 11
	maximum = 11
	95th percentile = 11.5
	99th percentile = 11.5
Slowest packet = 0
Flit latency average = 11
	minimum = 11
	maximum = 11
	95th percentile = 11.5
	99th percentile = 11.5
Slowest flit = 0
Fragmentation average = 0
	minimum = 0
	maximum = 0
Injected packet rate average = 0.0478148
	minimum = 0 (at node 0)
	maximum = 0.430333 (at node 4)
Accepted packet rate average = 0.0476296
	minimum = 0 (at node 0)
	maximum = 0.428667 (at node 8)
Injected flit rate average = 0.0478148
	minimum = 0 (at node 0)
	maximum = 0.430333 (at node 4)
Accepted flit rate average= 0.0476296
	minimum = 0 (at node 0)
	maximum = 0.428667 (at node 8)
Injected packet length average = 1
Accepted packet length average = 1
Total in-flight flits = 5 (0 measured)
====== Peak Queue Occupancy Statistics (Absolute Max) ======
  Overall Max VC Occupancy = 1
  Overall Max Buffer Occupancy = 1
latency change    = 1
throughput change = 1
Class 0:
Packet latency average = 11
	minimum = 11
	maximum = 11
	95th percentile = 11.5
	99th percentile = 11.5
Network latency average = 11
	minimum = 11
	maximum = 11
	95th percentile = 11.5
	99th percentile = 11.5
Slowest packet = 0
Flit latency average = 11
	minimum = 11
	maximum = 11
	95th percentile = 11.5
	99th percentile = 11.5
Slowest flit = 0
Fragmentation average = 0
	minimum = 0
	maximum = 0
Injected packet rate average = 0.0737778
	minimum = 0 (at node 1)
	maximum = 0.5135 (at node 4)
Accepted packet rate average = 0.0735741
	minimum = 0 (at node 0)
	maximum = 0.512167 (at node 8)
Injected flit rate average = 0.0737778
	minimum = 0 (at node 1)
	maximum = 0.5135 (at node 4)
Accepted flit rate average= 0.0735741
	minimum = 0 (at node 0)
	maximum = 0.512167 (at node 8)
Injected packet length average = 1
Accepted packet length average = 1
Total in-flight flits = 11 (0 measured)
====== Peak Queue Occupancy Statistics (Absolute Max) ======
  Overall Max VC Occupancy = 1
  Overall Max Buffer Occupancy = 1
latency change    = 0
throughput change = 0.35263
Warmed up ...Time used is 6000 cycles
Class 0:
Packet latency average = 11
	minimum = 11
	maximum = 11
	95th percentile = 11.5
	99th percentile = 11.5
Network latency average = 11
	minimum = 11
	maximum = 11
	95th percentile = 11.5
	99th percentile = 11.5
Slowest packet = 3984
Flit latency average = 11
	minimum = 11
	maximum = 11
	95th percentile = 11.5
	99th percentile = 11.5
Slowest flit = 3973
Fragmentation average = 0
	minimum = 0
	maximum = 0
Injected packet rate average = 0.151037
	minimum = 0 (at node 1)
	maximum = 0.604667 (at node 0)
Accepted packet rate average = 0.150889
	minimum = 0 (at node 0)
	maximum = 0.604 (at node 4)
Injected flit rate average = 0.151037
	minimum = 0 (at node 1)
	maximum = 0.604667 (at node 0)
Accepted flit rate average= 0.150889
	minimum = 0 (at node 0)
	maximum = 0.604 (at node 4)
Injected packet length average = 1
Accepted packet length average = 1
Total in-flight flits = 15 (15 measured)
====== Peak Queue Occupancy Statistics (Absolute Max) ======
  Overall Max VC Occupancy = 1
  Overall Max Buffer Occupancy = 1
latency change    = 0
throughput change = 0.512396
Class 0:
Packet latency average = 11
	minimum = 11
	maximum = 11
	95th percentile = 11.5
	99th percentile = 11.5
Network latency average = 11
	minimum = 11
	maximum = 11
	95th percentile = 11.5
	99th percentile = 11.5
Slowest packet = 3984
Flit latency average = 11
	minimum = 11
	maximum = 11
	95th percentile = 11.5
	99th percentile = 11.5
Slowest flit = 3973
Fragmentation average = 0
	minimum = 0
	maximum = 0
Injected packet rate average = 0.175741
	minimum = 0 (at node 1)
	maximum = 0.599 (at node 0)
Accepted packet rate average = 0.175741
	minimum = 0 (at node 0)
	maximum = 0.598833 (at node 4)
Injected flit rate average = 0.175741
	minimum = 0 (at node 1)
	maximum = 0.599 (at node 0)
Accepted flit rate average= 0.175741
	minimum = 0 (at node 0)
	maximum = 0.598833 (at node 4)
Injected packet length average = 1
Accepted packet length average = 1
Total in-flight flits = 11 (11 measured)
====== Peak Queue Occupancy Statistics (Absolute Max) ======
  Overall Max VC Occupancy = 1
  Overall Max Buffer Occupancy = 1
latency change    = 0
throughput change = 0.141412
Class 0:
Packet latency average = 11.5098
	minimum = 11
	maximum = 17
	95th percentile = 17.5
	99th percentile = 17.5
Network latency average = 11.5098
	minimum = 11
	maximum = 17
	95th percentile = 17.5
	99th percentile = 17.5
Slowest packet = 13476
Flit latency average = 11.5095
	minimum = 11
	maximum = 17
	95th percentile = 17.5
	99th percentile = 17.5
Slowest flit = 13476
Fragmentation average = 0
	minimum = 0
	maximum = 0
Injected packet rate average = 0.201086
	minimum = 0 (at node 1)
	maximum = 0.603111 (at node 0)
Accepted packet rate average = 0.200926
	minimum = 0 (at node 0)
	maximum = 0.603 (at node 4)
Injected flit rate average = 0.201086
	minimum = 0 (at node 1)
	maximum = 0.603111 (at node 0)
Accepted flit rate average= 0.200926
	minimum = 0 (at node 0)
	maximum = 0.603 (at node 4)
Injected packet length average = 1
Accepted packet length average = 1
Total in-flight flits = 24 (24 measured)
====== Peak Queue Occupancy Statistics (Absolute Max) ======
  Overall Max VC Occupancy = 1
  Overall Max Buffer Occupancy = 1
latency change    = 0.0442958
throughput change = 0.125346
Class 0:
Packet latency average = 12.0241
	minimum = 11
	maximum = 17
	95th percentile = 17.5
	99th percentile = 17.5
Network latency average = 12.0241
	minimum = 11
	maximum = 17
	95th percentile = 17.5
	99th percentile = 17.5
Slowest packet = 13476
Flit latency average = 12.0236
	minimum = 11
	maximum = 17
	95th percentile = 17.5
	99th percentile = 17.5
Slowest flit = 13476
Fragmentation average = 0
	minimum = 0
	maximum = 0
Injected packet rate average = 0.226593
	minimum = 0 (at node 1)
	maximum = 0.602833 (at node 0)
Accepted packet rate average = 0.226435
	minimum = 0 (at node 1)
	maximum = 0.6025 (at node 4)
Injected flit rate average = 0.226593
	minimum = 0 (at node 1)
	maximum = 0.602833 (at node 0)
Accepted flit rate average= 0.226435
	minimum = 0 (at node 1)
	maximum = 0.6025 (at node 4)
Injected packet length average = 1
Accepted packet length average = 1
Total in-flight flits = 28 (28 measured)
====== Peak Queue Occupancy Statistics (Absolute Max) ======
  Overall Max VC Occupancy = 1
  Overall Max Buffer Occupancy = 1
latency change    = 0.0427657
throughput change = 0.112656
Class 0:
Packet latency average = 12.4088
	minimum = 11
	maximum = 22
	95th percentile = 17.5
	99th percentile = 18.5
Network latency average = 12.4088
	minimum = 11
	maximum = 22
	95th percentile = 17.5
	99th percentile = 18.5
Slowest packet = 36522
Flit latency average = 12.4083
	minimum = 11
	maximum = 22
	95th percentile = 17.5
	99th percentile = 18.5
Slowest flit = 36522
Fragmentation average = 0
	minimum = 0
	maximum = 0
Injected packet rate average = 0.251363
	minimum = 0 (at node 3)
	maximum = 0.601267 (at node 0)
Accepted packet rate average = 0.251096
	minimum = 0 (at node 1)
	maximum = 0.601 (at node 4)
Injected flit rate average = 0.251363
	minimum = 0 (at node 3)
	maximum = 0.601267 (at node 0)
Accepted flit rate average= 0.251096
	minimum = 0 (at node 1)
	maximum = 0.601 (at node 4)
Injected packet length average = 1
Accepted packet length average = 1
Total in-flight flits = 47 (47 measured)
====== Peak Queue Occupancy Statistics (Absolute Max) ======
  Overall Max VC Occupancy = 1
  Overall Max Buffer Occupancy = 2
latency change    = 0.0310035
throughput change = 0.0982138
Class 0:
Packet latency average = 29.9789
	minimum = 11
	maximum = 1608
	95th percentile = 93.5
	99th percentile = 428.5
Network latency average = 22.0183
	minimum = 11
	maximum = 1489
	95th percentile = 76.5
	99th percentile = 185.5
Slowest packet = 42075
Flit latency average = 22.0155
	minimum = 11
	maximum = 1489
	95th percentile = 76.5
	99th percentile = 185.5
Slowest flit = 42075
Fragmentation average = 0
	minimum = 0
	maximum = 0
Injected packet rate average = 0.273562
	minimum = 0 (at node 3)
	maximum = 0.601056 (at node 0)
Accepted packet rate average = 0.272259
	minimum = 0 (at node 1)
	maximum = 0.600722 (at node 4)
Injected flit rate average = 0.273562
	minimum = 0 (at node 3)
	maximum = 0.601056 (at node 0)
Accepted flit rate average= 0.272259
	minimum = 0 (at node 1)
	maximum = 0.600722 (at node 4)
Injected packet length average = 1
Accepted packet length average = 1
Total in-flight flits = 224 (224 measured)
====== Peak Queue Occupancy Statistics (Absolute Max) ======
  Overall Max VC Occupancy = 1
  Overall Max Buffer Occupancy = 48
latency change    = 0.586083
throughput change = 0.0777309
Class 0:
Packet latency average = 64.7438
	minimum = 11
	maximum = 1834
	95th percentile = 517.5
	99th percentile = 969.5
Network latency average = 29.5533
	minimum = 11
	maximum = 1489
	95th percentile = 95.5
	99th percentile = 458.5
Slowest packet = 42075
Flit latency average = 29.5497
	minimum = 11
	maximum = 1489
	95th percentile = 95.5
	99th percentile = 458.5
Slowest flit = 42075
Fragmentation average = 0
	minimum = 0
	maximum = 0
Injected packet rate average = 0.295709
	minimum = 0 (at node 3)
	maximum = 0.601 (at node 0)
Accepted packet rate average = 0.294529
	minimum = 0 (at node 1)
	maximum = 0.600667 (at node 4)
Injected flit rate average = 0.295709
	minimum = 0 (at node 3)
	maximum = 0.601 (at node 0)
Accepted flit rate average= 0.294529
	minimum = 0 (at node 1)
	maximum = 0.600667 (at node 4)
Injected packet length average = 1
Accepted packet length average = 1
Total in-flight flits = 234 (234 measured)
====== Peak Queue Occupancy Statistics (Absolute Max) ======
  Overall Max VC Occupancy = 1
  Overall Max Buffer Occupancy = 48
latency change    = 0.536961
throughput change = 0.0756117
Class 0:
Packet latency average = 109.543
	minimum = 11
	maximum = 2315
	95th percentile = 939.5
	99th percentile = 999.5
Network latency average = 34.1933
	minimum = 11
	maximum = 1489
	95th percentile = 99.5
	99th percentile = 635.5
Slowest packet = 42075
Flit latency average = 34.1896
	minimum = 11
	maximum = 1489
	95th percentile = 99.5
	99th percentile = 635.5
Slowest flit = 42075
Fragmentation average = 0
	minimum = 0
	maximum = 0
Injected packet rate average = 0.318431
	minimum = 0 (at node 6)
	maximum = 0.600458 (at node 4)
Accepted packet rate average = 0.317444
	minimum = 0 (at node 2)
	maximum = 0.600583 (at node 8)
Injected flit rate average = 0.318431
	minimum = 0 (at node 6)
	maximum = 0.600458 (at node 4)
Accepted flit rate average= 0.317444
	minimum = 0 (at node 2)
	maximum = 0.600583 (at node 8)
Injected packet length average = 1
Accepted packet length average = 1
Total in-flight flits = 224 (224 measured)
====== Peak Queue Occupancy Statistics (Absolute Max) ======
  Overall Max VC Occupancy = 1
  Overall Max Buffer Occupancy = 48
latency change    = 0.408963
throughput change = 0.0721869
Class 0:
Packet latency average = 156.804
	minimum = 11
	maximum = 3006
	95th percentile = 999.5
	99th percentile = 999.5
Network latency average = 36.969
	minimum = 11
	maximum = 1489
	95th percentile = 119.5
	99th percentile = 676.5
Slowest packet = 42075
Flit latency average = 36.9656
	minimum = 11
	maximum = 1489
	95th percentile = 119.5
	99th percentile = 676.5
Slowest flit = 42075
Fragmentation average = 0
	minimum = 0
	maximum = 0
Injected packet rate average = 0.341807
	minimum = 0.016 (at node 6)
	maximum = 0.60063 (at node 4)
Accepted packet rate average = 0.340893
	minimum = 0.015963 (at node 2)
	maximum = 0.60063 (at node 8)
Injected flit rate average = 0.341807
	minimum = 0.016 (at node 6)
	maximum = 0.60063 (at node 4)
Accepted flit rate average= 0.340893
	minimum = 0.015963 (at node 2)
	maximum = 0.60063 (at node 8)
Injected packet length average = 1
Accepted packet length average = 1
Total in-flight flits = 235 (235 measured)
====== Peak Queue Occupancy Statistics (Absolute Max) ======
  Overall Max VC Occupancy = 1
  Overall Max Buffer Occupancy = 48
latency change    = 0.301402
throughput change = 0.0687857
Class 0:
Packet latency average = 210.454
	minimum = 11
	maximum = 3450
	95th percentile = 999.5
	99th percentile = 999.5
Network latency average = 42.4294
	minimum = 11
	maximum = 1595
	95th percentile = 137.5
	99th percentile = 716.5
Slowest packet = 42075
Flit latency average = 42.4258
	minimum = 11
	maximum = 1595
	95th percentile = 137.5
	99th percentile = 716.5
Slowest flit = 93834
Fragmentation average = 0
	minimum = 0
	maximum = 0
Injected packet rate average = 0.363941
	minimum = 0.0723333 (at node 6)
	maximum = 0.601467 (at node 4)
Accepted packet rate average = 0.362426
	minimum = 0.0682 (at node 2)
	maximum = 0.601567 (at node 8)
Injected flit rate average = 0.363941
	minimum = 0.0723333 (at node 6)
	maximum = 0.601467 (at node 4)
Accepted flit rate average= 0.362426
	minimum = 0.0682 (at node 2)
	maximum = 0.601567 (at node 8)
Injected packet length average = 1
Accepted packet length average = 1
Total in-flight flits = 422 (422 measured)
====== Peak Queue Occupancy Statistics (Absolute Max) ======
  Overall Max VC Occupancy = 1
  Overall Max Buffer Occupancy = 48
latency change    = 0.254927
throughput change = 0.0594133
Class 0:
Packet latency average = 278.138
	minimum = 11
	maximum = 3840
	95th percentile = 999.5
	99th percentile = 999.5
Network latency average = 47.9021
	minimum = 11
	maximum = 2010
	95th percentile = 160.5
	99th percentile = 770.5
Slowest packet = 42075
Flit latency average = 47.8985
	minimum = 11
	maximum = 2010
	95th percentile = 160.5
	99th percentile = 770.5
Slowest flit = 100167
Fragmentation average = 0
	minimum = 0
	maximum = 0
Injected packet rate average = 0.381653
	minimum = 0.106152 (at node 6)
	maximum = 0.602485 (at node 4)
Accepted packet rate average = 0.380259
	minimum = 0.102061 (at node 2)
	maximum = 0.602545 (at node 8)
Injected flit rate average = 0.381653
	minimum = 0.106152 (at node 6)
	maximum = 0.602485 (at node 4)
Accepted flit rate average= 0.380259
	minimum = 0.102061 (at node 2)
	maximum = 0.602545 (at node 8)
Injected packet length average = 1
Accepted packet length average = 1
Total in-flight flits = 426 (426 measured)
====== Peak Queue Occupancy Statistics (Absolute Max) ======
  Overall Max VC Occupancy = 1
  Overall Max Buffer Occupancy = 48
latency change    = 0.243346
throughput change = 0.0468978
Class 0:
Packet latency average = 353.507
	minimum = 11
	maximum = 4645
	95th percentile = 999.5
	99th percentile = 999.5
Network latency average = 52.1573
	minimum = 11
	maximum = 2010
	95th percentile = 187.5
	99th percentile = 857.5
Slowest packet = 42075
Flit latency average = 52.1538
	minimum = 11
	maximum = 2010
	95th percentile = 187.5
	99th percentile = 856.5
Slowest flit = 100167
Fragmentation average = 0
	minimum = 0
	maximum = 0
Injected packet rate average = 0.396352
	minimum = 0.140722 (at node 6)
	maximum = 0.601639 (at node 4)
Accepted packet rate average = 0.395074
	minimum = 0.137444 (at node 2)
	maximum = 0.601611 (at node 8)
Injected flit rate average = 0.396352
	minimum = 0.140722 (at node 6)
	maximum = 0.601639 (at node 4)
Accepted flit rate average= 0.395074
	minimum = 0.137444 (at node 2)
	maximum = 0.601611 (at node 8)
Injected packet length average = 1
Accepted packet length average = 1
Total in-flight flits = 428 (428 measured)
====== Peak Queue Occupancy Statistics (Absolute Max) ======
  Overall Max VC Occupancy = 1
  Overall Max Buffer Occupancy = 48
latency change    = 0.213205
throughput change = 0.0374988
Class 0:
Packet latency average = 433.194
	minimum = 11
	maximum = 4908
	95th percentile = 999.5
	99th percentile = 999.5
Network latency average = 55.4136
	minimum = 11
	maximum = 2010
	95th percentile = 199.5
	99th percentile = 863.5
Slowest packet = 42075
Flit latency average = 55.4102
	minimum = 11
	maximum = 2010
	95th percentile = 199.5
	99th percentile = 863.5
Slowest flit = 100167
Fragmentation average = 0
	minimum = 0
	maximum = 0
Injected packet rate average = 0.4089
	minimum = 0.170615 (at node 6)
	maximum = 0.601846 (at node 4)
Accepted packet rate average = 0.407715
	minimum = 0.167487 (at node 2)
	maximum = 0.601846 (at node 8)
Injected flit rate average = 0.4089
	minimum = 0.170615 (at node 6)
	maximum = 0.601846 (at node 4)
Accepted flit rate average= 0.407715
	minimum = 0.167487 (at node 2)
	maximum = 0.601846 (at node 8)
Injected packet length average = 1
Accepted packet length average = 1
Total in-flight flits = 429 (429 measured)
====== Peak Queue Occupancy Statistics (Absolute Max) ======
  Overall Max VC Occupancy = 1
  Overall Max Buffer Occupancy = 48
latency change    = 0.183951
throughput change = 0.0310046
Class 0:
Packet latency average = 517.357
	minimum = 11
	maximum = 5441
	95th percentile = 999.5
	99th percentile = 999.5
Network latency average = 58.1253
	minimum = 11
	maximum = 2010
	95th percentile = 213.5
	99th percentile = 863.5
Slowest packet = 42075
Flit latency average = 58.1221
	minimum = 11
	maximum = 2010
	95th percentile = 213.5
	99th percentile = 863.5
Slowest flit = 100167
Fragmentation average = 0
	minimum = 0
	maximum = 0
Injected packet rate average = 0.419238
	minimum = 0.189333 (at node 6)
	maximum = 0.601929 (at node 4)
Accepted packet rate average = 0.418164
	minimum = 0.186524 (at node 2)
	maximum = 0.601952 (at node 8)
Injected flit rate average = 0.419238
	minimum = 0.189333 (at node 6)
	maximum = 0.601929 (at node 4)
Accepted flit rate average= 0.418164
	minimum = 0.186524 (at node 2)
	maximum = 0.601952 (at node 8)
Injected packet length average = 1
Accepted packet length average = 1
Total in-flight flits = 418 (418 measured)
====== Peak Queue Occupancy Statistics (Absolute Max) ======
  Overall Max VC Occupancy = 1
  Overall Max Buffer Occupancy = 48
latency change    = 0.162679
throughput change = 0.0249876
Class 0:
Packet latency average = 604.865
	minimum = 11
	maximum = 6053
	95th percentile = 999.5
	99th percentile = 999.5
Network latency average = 60.3834
	minimum = 11
	maximum = 2010
	95th percentile = 227.5
	99th percentile = 875.5
Slowest packet = 42075
Flit latency average = 60.3803
	minimum = 11
	maximum = 2010
	95th percentile = 227.5
	99th percentile = 875.5
Slowest flit = 100167
Fragmentation average = 0
	minimum = 0
	maximum = 0
Injected packet rate average = 0.428202
	minimum = 0.212889 (at node 6)
	maximum = 0.601067 (at node 4)
Accepted packet rate average = 0.42721
	minimum = 0.210356 (at node 2)
	maximum = 0.601089 (at node 8)
Injected flit rate average = 0.428202
	minimum = 0.212889 (at node 6)
	maximum = 0.601067 (at node 4)
Accepted flit rate average= 0.42721
	minimum = 0.210356 (at node 2)
	maximum = 0.601089 (at node 8)
Injected packet length average = 1
Accepted packet length average = 1
Total in-flight flits = 416 (416 measured)
====== Peak Queue Occupancy Statistics (Absolute Max) ======
  Overall Max VC Occupancy = 1
  Overall Max Buffer Occupancy = 48
latency change    = 0.144675
throughput change = 0.0211743
Class 0:
Packet latency average = 694.987
	minimum = 11
	maximum = 6360
	95th percentile = 999.5
	99th percentile = 999.5
Network latency average = 62.2783
	minimum = 11
	maximum = 2010
	95th percentile = 236.5
	99th percentile = 893.5
Slowest packet = 42075
Flit latency average = 62.2753
	minimum = 11
	maximum = 2010
	95th percentile = 236.5
	99th percentile = 893.5
Slowest flit = 100167
Fragmentation average = 0
	minimum = 0
	maximum = 0
Injected packet rate average = 0.43612
	minimum = 0.232208 (at node 6)
	maximum = 0.600896 (at node 4)
Accepted packet rate average = 0.435181
	minimum = 0.229687 (at node 2)
	maximum = 0.600917 (at node 8)
Injected flit rate average = 0.43612
	minimum = 0.232208 (at node 6)
	maximum = 0.600896 (at node 4)
Accepted flit rate average= 0.435181
	minimum = 0.229687 (at node 2)
	maximum = 0.600917 (at node 8)
Injected packet length average = 1
Accepted packet length average = 1
Total in-flight flits = 418 (418 measured)
====== Peak Queue Occupancy Statistics (Absolute Max) ======
  Overall Max VC Occupancy = 1
  Overall Max Buffer Occupancy = 48
latency change    = 0.129673
throughput change = 0.0183158
Class 0:
Packet latency average = 787.514
	minimum = 11
	maximum = 6940
	95th percentile = 999.5
	99th percentile = 999.5
Network latency average = 63.8836
	minimum = 11
	maximum = 2010
	95th percentile = 237.5
	99th percentile = 901.5
Slowest packet = 42075
Flit latency average = 63.8807
	minimum = 11
	maximum = 2010
	95th percentile = 237.5
	99th percentile = 901.5
Slowest flit = 100167
Fragmentation average = 0
	minimum = 0
	maximum = 0
Injected packet rate average = 0.443002
	minimum = 0.244686 (at node 6)
	maximum = 0.600745 (at node 4)
Accepted packet rate average = 0.442122
	minimum = 0.24251 (at node 2)
	maximum = 0.600725 (at node 8)
Injected flit rate average = 0.443002
	minimum = 0.244686 (at node 6)
	maximum = 0.600745 (at node 4)
Accepted flit rate average= 0.442122
	minimum = 0.24251 (at node 2)
	maximum = 0.600725 (at node 8)
Injected packet length average = 1
Accepted packet length average = 1
Total in-flight flits = 417 (417 measured)
====== Peak Queue Occupancy Statistics (Absolute Max) ======
  Overall Max VC Occupancy = 1
  Overall Max Buffer Occupancy = 48
latency change    = 0.117493
throughput change = 0.0157003
Class 0:
Packet latency average = 881.255
	minimum = 11
	maximum = 7562
	95th percentile = 999.5
	99th percentile = 999.5
Network latency average = 65.248
	minimum = 11
	maximum = 2010
	95th percentile = 241.5
	99th percentile = 916.5
Slowest packet = 42075
Flit latency average = 65.2452
	minimum = 11
	maximum = 2010
	95th percentile = 241.5
	99th percentile = 916.5
Slowest flit = 100167
Fragmentation average = 0
	minimum = 0
	maximum = 0
Injected packet rate average = 0.449074
	minimum = 0.261407 (at node 6)
	maximum = 0.600815 (at node 4)
Accepted packet rate average = 0.448243
	minimum = 0.259389 (at node 2)
	maximum = 0.600852 (at node 8)
Injected flit rate average = 0.449074
	minimum = 0.261407 (at node 6)
	maximum = 0.600815 (at node 4)
Accepted flit rate average= 0.448243
	minimum = 0.259389 (at node 2)
	maximum = 0.600852 (at node 8)
Injected packet length average = 1
Accepted packet length average = 1
Total in-flight flits = 418 (418 measured)
====== Peak Queue Occupancy Statistics (Absolute Max) ======
  Overall Max VC Occupancy = 1
  Overall Max Buffer Occupancy = 48
latency change    = 0.106372
throughput change = 0.0136551
Class 0:
Packet latency average = 975.881
	minimum = 11
	maximum = 7866
	95th percentile = 999.5
	99th percentile = 999.5
Network latency average = 66.4946
	minimum = 11
	maximum = 2010
	95th percentile = 247.5
	99th percentile = 934.5
Slowest packet = 42075
Flit latency average = 66.492
	minimum = 11
	maximum = 2010
	95th percentile = 247.5
	99th percentile = 934.5
Slowest flit = 100167
Fragmentation average = 0
	minimum = 0
	maximum = 0
Injected packet rate average = 0.454669
	minimum = 0.274316 (at node 6)
	maximum = 0.601404 (at node 4)
Accepted packet rate average = 0.453877
	minimum = 0.272175 (at node 2)
	maximum = 0.601491 (at node 8)
Injected flit rate average = 0.454669
	minimum = 0.274316 (at node 6)
	maximum = 0.601404 (at node 4)
Accepted flit rate average= 0.453877
	minimum = 0.272175 (at node 2)
	maximum = 0.601491 (at node 8)
Injected packet length average = 1
Accepted packet length average = 1
Total in-flight flits = 419 (419 measured)
====== Peak Queue Occupancy Statistics (Absolute Max) ======
  Overall Max VC Occupancy = 1
  Overall Max Buffer Occupancy = 48
latency change    = 0.0969654
throughput change = 0.0124139
Class 0:
Packet latency average = 1071.03
	minimum = 11
	maximum = 8513
	95th percentile = 999.5
	99th percentile = 999.5
Network latency average = 67.5145
	minimum = 11
	maximum = 2010
	95th percentile = 253.5
	99th percentile = 952.5
Slowest packet = 42075
Flit latency average = 67.512
	minimum = 11
	maximum = 2010
	95th percentile = 253.5
	99th percentile = 952.5
Slowest flit = 100167
Fragmentation average = 0
	minimum = 0
	maximum = 0
Injected packet rate average = 0.459944
	minimum = 0.283583 (at node 6)
	maximum = 0.6015 (at node 4)
Accepted packet rate average = 0.459191
	minimum = 0.2817 (at node 2)
	maximum = 0.601533 (at node 8)
Injected flit rate average = 0.459944
	minimum = 0.283583 (at node 6)
	maximum = 0.6015 (at node 4)
Accepted flit rate average= 0.459191
	minimum = 0.2817 (at node 2)
	maximum = 0.601533 (at node 8)
Injected packet length average = 1
Accepted packet length average = 1
Total in-flight flits = 420 (420 measured)
====== Peak Queue Occupancy Statistics (Absolute Max) ======
  Overall Max VC Occupancy = 1
  Overall Max Buffer Occupancy = 48
latency change    = 0.0888342
throughput change = 0.0115715
Draining all recorded packets ...
Class 0:
Remaining flits: 249454 249696 249935 249957 249997 250178 250209 250418 250661 250815 [...] (418 flits)
Measured flits: 249454 249696 249935 249957 249997 250178 250209 250418 250661 250815 [...] (386 flits)
Class 0:
Remaining flits: 254536 254780 254904 255021 255423 255447 255479 255541 255725 255811 [...] (423 flits)
Measured flits: 254536 254780 254904 255021 255423 255447 255479 255541 255725 255811 [...] (386 flits)
Class 0:
Remaining flits: 258783 258807 259762 259840 259966 260004 260198 260533 260575 260790 [...] (425 flits)
Measured flits: 258783 258807 259762 259840 259966 260004 260198 260533 260575 260790 [...] (386 flits)
Class 0:
Remaining flits: 263963 264210 264676 264719 264908 265048 265146 265463 265522 265586 [...] (424 flits)
Measured flits: 263963 264210 264676 264719 264908 265048 265146 265463 265522 265586 [...] (384 flits)
Class 0:
Remaining flits: 269388 269620 269860 270101 270306 270344 270385 270588 270832 270950 [...] (422 flits)
Measured flits: 269388 269620 269860 270101 270306 270344 270385 270588 270832 270950 [...] (384 flits)
Class 0:
Remaining flits: 274476 274706 274953 275180 275302 275419 275627 275657 275760 275874 [...] (424 flits)
Measured flits: 274476 274706 274953 275180 275302 275419 275627 275657 275760 275874 [...] (383 flits)
Class 0:
Remaining flits: 279415 279689 279759 279935 280069 280212 280385 280477 280761 280776 [...] (420 flits)
Measured flits: 279415 279689 279759 279935 280069 280212 280385 280477 280761 280776 [...] (247 flits)
Class 0:
Remaining flits: 283610 284512 284720 284921 285455 285541 285614 285638 285706 285777 [...] (418 flits)
Measured flits: 285541 285777 286010 286244 286487 286789 286984 287210 287323 287714 [...] (198 flits)
Class 0:
Remaining flits: 288237 289815 290062 290297 290540 290606 290773 290839 291022 291092 [...] (415 flits)
Measured flits: 292078 292318 292566 292762 292817 292996 293063 293075 293255 293298 [...] (140 flits)
Class 0:
Remaining flits: 294563 294638 294896 295135 295375 295615 295676 295826 295860 295890 [...] (420 flits)
Measured flits: 297144 297379 (2 flits)
Draining remaining packets ...
Time taken is 76263 cycles
====== Overall Traffic Statistics ======
====== Traffic class 0 ======
Packet latency average = 1453.9 (1 samples)
	minimum = 11 (1 samples)
	maximum = 10317 (1 samples)
Network latency average = 75.4471 (1 samples)
	minimum = 11 (1 samples)
	maximum = 2010 (1 samples)
Flit latency average = 70.6599 (1 samples)
	minimum = 11 (1 samples)
	maximum = 2010 (1 samples)
Fragmentation average = 0 (1 samples)
	minimum = 0 (1 samples)
	maximum = 0 (1 samples)
Injected packet rate average = 0.459944 (1 samples)
	minimum = 0.283583 (1 samples)
	maximum = 0.6015 (1 samples)
Accepted packet rate average = 0.459191 (1 samples)
	minimum = 0.2817 (1 samples)
	maximum = 0.601533 (1 samples)
Injected flit rate average = 0.459944 (1 samples)
	minimum = 0.283583 (1 samples)
	maximum = 0.6015 (1 samples)
Accepted flit rate average = 0.459191 (1 samples)
	minimum = 0.2817 (1 samples)
	maximum = 0.601533 (1 samples)
Injected packet size average = 1 (1 samples)
Accepted packet size average = 1 (1 samples)
Hops average = 3.62304 (1 samples)
Total run time 28.015

