BEGIN Configuration File: D:\noc_huawei\noc\booksim2-noc_speedup_study\booksim2-noc_speedup_study\tests\data\results\fixed_perm_growth_models_perm_4_3_6_1_8_7_2_5_0_peak_0p6_current_defaults\tmp_configs\ordered_fill_hybrid_xy_racke_s2203.config
num_vcs     = 48;
vc_buf_size = 16;
wait_for_tail_credit = 1;

vc_allocator = islip;
sw_allocator = islip;
alloc_iters  = 16;

credit_delay   = 2;
routing_delay  = 0;
vc_alloc_delay = 1;
sw_alloc_delay = 1;
st_final_delay = 1;

input_speedup     = 1;
output_speedup    = 1;
internal_speedup  = 2.0;

sim_type = latency;
latency_thres  = 100000.0;
sim_count      = 1;
queue_sample_period_cycles = 0;

topology = mesh;
k  = 3;
n  = 2;

hybrid_transition_mode = linear_prob;
hybrid_xy_low_threshold = 0.35;
hybrid_racke_high_threshold = 0.65;
hybrid_buffer_soft_threshold = 0.50;
hybrid_buffer_hard_threshold = 0.85;
hybrid_buffer_release_threshold = 0.35;
hybrid_rate_soft_threshold = 0.55;
hybrid_rate_hard_threshold = 0.90;
hybrid_rate_weight = 0.25;
hybrid_congestion_alpha = 0.25;
hybrid_racke_increase_step = 0.25;
hybrid_racke_decrease_step = 0.10;
hybrid_epoch_cycles = 200;
hybrid_hold_cycles = 600;
hybrid_enable_midflight_override = 1;
hybrid_feedback_delay_per_hop = 1;
hybrid_flow_increase_step = 0.20;
hybrid_flow_decrease_step = 0.08;
hybrid_flow_hard_threshold = 0.95;

packet_size = 1;

scheduled_injection_rates = {0.10,0.20,0.30};
scheduled_phase_cycles = {1000,1000,1000};
scheduled_default_phase_cycles = 1000;

custom_perm_array = {4,3,6,1,8,7,2,5,0};
warmup_periods = 2;
seed = 2203;
hybrid_flow_hotspot_alpha = 0.85;
injection_process = ordered_fill;
perm_seed = 2203;
ordered_injection_phase_cycles = {3000,3000,3000,3000,3000,3000,3000,3000,3000,3000,3000,3000,3000,3000};
routing_function = hybrid_xy_racke;
injection_rate = 0.6;
max_samples = 22;
ordered_injection_source_order = {4,0,7,2,8,1,5,3,6};
hybrid_flow_hotspot_threshold = 1.1;
ordered_injection_flow_peak_rate = 0.6;
ordered_injection_coefficients = {0.0833333333333333,0.166666666666667,0.25,0.333333333333333,0.416666666666667,0.5,0.583333333333333,0.666666666666667,0.75,0.833333333333333,0.916666666666667,1.0,1.0,1.0};
hybrid_stats_window_cycles = 3000;
traffic = custom_perm;
sample_period = 3000;

END Configuration File: D:\noc_huawei\noc\booksim2-noc_speedup_study\booksim2-noc_speedup_study\tests\data\results\fixed_perm_growth_models_perm_4_3_6_1_8_7_2_5_0_peak_0p6_current_defaults\tmp_configs\ordered_fill_hybrid_xy_racke_s2203.config
Class 0:
Packet latency average = 11
	minimum = 11
	maximum = 11
	95th percentile = 11.5
	99th percentile = 11.5
Network latency average = 11
	minimum = 11
	maximum = 11
	95th percentile = 11.5
	99th percentile = 11.5
Slowest packet = 0
Flit latency average = 11
	minimum = 11
	maximum = 11
	95th percentile = 11.5
	99th percentile = 11.5
Slowest flit = 0
Fragmentation average = 0
	minimum = 0
	maximum = 0
Injected packet rate average = 0.0478148
	minimum = 0 (at node 0)
	maximum = 0.430333 (at node 4)
Accepted packet rate average = 0.0476296
	minimum = 0 (at node 0)
	maximum = 0.428667 (at node 8)
Injected flit rate average = 0.0478148
	minimum = 0 (at node 0)
	maximum = 0.430333 (at node 4)
Accepted flit rate average= 0.0476296
	minimum = 0 (at node 0)
	maximum = 0.428667 (at node 8)
Injected packet length average = 1
Accepted packet length average = 1
Total in-flight flits = 5 (0 measured)
====== Peak Queue Occupancy Statistics (Absolute Max) ======
  Overall Max VC Occupancy = 1
  Overall Max Buffer Occupancy = 1
latency change    = 1
throughput change = 1
Class 0:
Packet latency average = 11
	minimum = 11
	maximum = 11
	95th percentile = 11.5
	99th percentile = 11.5
Network latency average = 11
	minimum = 11
	maximum = 11
	95th percentile = 11.5
	99th percentile = 11.5
Slowest packet = 0
Flit latency average = 11
	minimum = 11
	maximum = 11
	95th percentile = 11.5
	99th percentile = 11.5
Slowest flit = 0
Fragmentation average = 0
	minimum = 0
	maximum = 0
Injected packet rate average = 0.0737778
	minimum = 0 (at node 1)
	maximum = 0.5135 (at node 4)
Accepted packet rate average = 0.0735741
	minimum = 0 (at node 0)
	maximum = 0.512167 (at node 8)
Injected flit rate average = 0.0737778
	minimum = 0 (at node 1)
	maximum = 0.5135 (at node 4)
Accepted flit rate average= 0.0735741
	minimum = 0 (at node 0)
	maximum = 0.512167 (at node 8)
Injected packet length average = 1
Accepted packet length average = 1
Total in-flight flits = 11 (0 measured)
====== Peak Queue Occupancy Statistics (Absolute Max) ======
  Overall Max VC Occupancy = 1
  Overall Max Buffer Occupancy = 1
latency change    = 0
throughput change = 0.35263
Warmed up ...Time used is 6000 cycles
Class 0:
Packet latency average = 11
	minimum = 11
	maximum = 11
	95th percentile = 11.5
	99th percentile = 11.5
Network latency average = 11
	minimum = 11
	maximum = 11
	95th percentile = 11.5
	99th percentile = 11.5
Slowest packet = 3984
Flit latency average = 11
	minimum = 11
	maximum = 11
	95th percentile = 11.5
	99th percentile = 11.5
Slowest flit = 3973
Fragmentation average = 0
	minimum = 0
	maximum = 0
Injected packet rate average = 0.151037
	minimum = 0 (at node 1)
	maximum = 0.604667 (at node 0)
Accepted packet rate average = 0.150889
	minimum = 0 (at node 0)
	maximum = 0.604 (at node 4)
Injected flit rate average = 0.151037
	minimum = 0 (at node 1)
	maximum = 0.604667 (at node 0)
Accepted flit rate average= 0.150889
	minimum = 0 (at node 0)
	maximum = 0.604 (at node 4)
Injected packet length average = 1
Accepted packet length average = 1
Total in-flight flits = 15 (15 measured)
====== Peak Queue Occupancy Statistics (Absolute Max) ======
  Overall Max VC Occupancy = 1
  Overall Max Buffer Occupancy = 1
latency change    = 0
throughput change = 0.512396
Class 0:
Packet latency average = 11
	minimum = 11
	maximum = 11
	95th percentile = 11.5
	99th percentile = 11.5
Network latency average = 11
	minimum = 11
	maximum = 11
	95th percentile = 11.5
	99th percentile = 11.5
Slowest packet = 3984
Flit latency average = 11
	minimum = 11
	maximum = 11
	95th percentile = 11.5
	99th percentile = 11.5
Slowest flit = 3973
Fragmentation average = 0
	minimum = 0
	maximum = 0
Injected packet rate average = 0.175741
	minimum = 0 (at node 1)
	maximum = 0.599 (at node 0)
Accepted packet rate average = 0.175741
	minimum = 0 (at node 0)
	maximum = 0.598833 (at node 4)
Injected flit rate average = 0.175741
	minimum = 0 (at node 1)
	maximum = 0.599 (at node 0)
Accepted flit rate average= 0.175741
	minimum = 0 (at node 0)
	maximum = 0.598833 (at node 4)
Injected packet length average = 1
Accepted packet length average = 1
Total in-flight flits = 11 (11 measured)
====== Peak Queue Occupancy Statistics (Absolute Max) ======
  Overall Max VC Occupancy = 1
  Overall Max Buffer Occupancy = 1
latency change    = 0
throughput change = 0.141412
Class 0:
Packet latency average = 11.5098
	minimum = 11
	maximum = 17
	95th percentile = 17.5
	99th percentile = 17.5
Network latency average = 11.5098
	minimum = 11
	maximum = 17
	95th percentile = 17.5
	99th percentile = 17.5
Slowest packet = 13476
Flit latency average = 11.5095
	minimum = 11
	maximum = 17
	95th percentile = 17.5
	99th percentile = 17.5
Slowest flit = 13476
Fragmentation average = 0
	minimum = 0
	maximum = 0
Injected packet rate average = 0.201086
	minimum = 0 (at node 1)
	maximum = 0.603111 (at node 0)
Accepted packet rate average = 0.200926
	minimum = 0 (at node 0)
	maximum = 0.603 (at node 4)
Injected flit rate average = 0.201086
	minimum = 0 (at node 1)
	maximum = 0.603111 (at node 0)
Accepted flit rate average= 0.200926
	minimum = 0 (at node 0)
	maximum = 0.603 (at node 4)
Injected packet length average = 1
Accepted packet length average = 1
Total in-flight flits = 24 (24 measured)
====== Peak Queue Occupancy Statistics (Absolute Max) ======
  Overall Max VC Occupancy = 1
  Overall Max Buffer Occupancy = 1
latency change    = 0.0442958
throughput change = 0.125346
Class 0:
Packet latency average = 12.0241
	minimum = 11
	maximum = 17
	95th percentile = 17.5
	99th percentile = 17.5
Network latency average = 12.0241
	minimum = 11
	maximum = 17
	95th percentile = 17.5
	99th percentile = 17.5
Slowest packet = 13476
Flit latency average = 12.0236
	minimum = 11
	maximum = 17
	95th percentile = 17.5
	99th percentile = 17.5
Slowest flit = 13476
Fragmentation average = 0
	minimum = 0
	maximum = 0
Injected packet rate average = 0.226593
	minimum = 0 (at node 1)
	maximum = 0.602833 (at node 0)
Accepted packet rate average = 0.226435
	minimum = 0 (at node 1)
	maximum = 0.6025 (at node 4)
Injected flit rate average = 0.226593
	minimum = 0 (at node 1)
	maximum = 0.602833 (at node 0)
Accepted flit rate average= 0.226435
	minimum = 0 (at node 1)
	maximum = 0.6025 (at node 4)
Injected packet length average = 1
Accepted packet length average = 1
Total in-flight flits = 28 (28 measured)
====== Peak Queue Occupancy Statistics (Absolute Max) ======
  Overall Max VC Occupancy = 1
  Overall Max Buffer Occupancy = 1
latency change    = 0.0427657
throughput change = 0.112656
Class 0:
Packet latency average = 12.4088
	minimum = 11
	maximum = 22
	95th percentile = 17.5
	99th percentile = 18.5
Network latency average = 12.4088
	minimum = 11
	maximum = 22
	95th percentile = 17.5
	99th percentile = 18.5
Slowest packet = 36522
Flit latency average = 12.4083
	minimum = 11
	maximum = 22
	95th percentile = 17.5
	99th percentile = 18.5
Slowest flit = 36522
Fragmentation average = 0
	minimum = 0
	maximum = 0
Injected packet rate average = 0.251363
	minimum = 0 (at node 3)
	maximum = 0.601267 (at node 0)
Accepted packet rate average = 0.251096
	minimum = 0 (at node 1)
	maximum = 0.601 (at node 4)
Injected flit rate average = 0.251363
	minimum = 0 (at node 3)
	maximum = 0.601267 (at node 0)
Accepted flit rate average= 0.251096
	minimum = 0 (at node 1)
	maximum = 0.601 (at node 4)
Injected packet length average = 1
Accepted packet length average = 1
Total in-flight flits = 47 (47 measured)
====== Peak Queue Occupancy Statistics (Absolute Max) ======
  Overall Max VC Occupancy = 1
  Overall Max Buffer Occupancy = 2
latency change    = 0.0310035
throughput change = 0.0982138
Class 0:
Packet latency average = 18.6999
	minimum = 11
	maximum = 685
	95th percentile = 61.5
	99th percentile = 145.5
Network latency average = 18.6974
	minimum = 11
	maximum = 685
	95th percentile = 61.5
	99th percentile = 145.5
Slowest packet = 40570
Flit latency average = 18.6955
	minimum = 11
	maximum = 685
	95th percentile = 61.5
	99th percentile = 145.5
Slowest flit = 40570
Fragmentation average = 0
	minimum = 0
	maximum = 0
Injected packet rate average = 0.276068
	minimum = 0 (at node 3)
	maximum = 0.602944 (at node 0)
Accepted packet rate average = 0.274975
	minimum = 0 (at node 1)
	maximum = 0.602722 (at node 4)
Injected flit rate average = 0.276068
	minimum = 0 (at node 3)
	maximum = 0.602944 (at node 0)
Accepted flit rate average= 0.274975
	minimum = 0 (at node 1)
	maximum = 0.602722 (at node 4)
Injected packet length average = 1
Accepted packet length average = 1
Total in-flight flits = 188 (188 measured)
====== Peak Queue Occupancy Statistics (Absolute Max) ======
  Overall Max VC Occupancy = 1
  Overall Max Buffer Occupancy = 48
latency change    = 0.336427
throughput change = 0.0868406
Class 0:
Packet latency average = 24.0185
	minimum = 11
	maximum = 1118
	95th percentile = 97.5
	99th percentile = 211.5
Network latency average = 23.8754
	minimum = 11
	maximum = 1118
	95th percentile = 96.5
	99th percentile = 210.5
Slowest packet = 49717
Flit latency average = 23.8729
	minimum = 11
	maximum = 1118
	95th percentile = 96.5
	99th percentile = 210.5
Slowest flit = 49717
Fragmentation average = 0
	minimum = 0
	maximum = 0
Injected packet rate average = 0.300603
	minimum = 0 (at node 3)
	maximum = 0.601619 (at node 0)
Accepted packet rate average = 0.299519
	minimum = 0 (at node 1)
	maximum = 0.600333 (at node 4)
Injected flit rate average = 0.300603
	minimum = 0 (at node 3)
	maximum = 0.601619 (at node 0)
Accepted flit rate average= 0.299519
	minimum = 0 (at node 1)
	maximum = 0.600333 (at node 4)
Injected packet length average = 1
Accepted packet length average = 1
Total in-flight flits = 216 (216 measured)
====== Peak Queue Occupancy Statistics (Absolute Max) ======
  Overall Max VC Occupancy = 1
  Overall Max Buffer Occupancy = 48
latency change    = 0.221435
throughput change = 0.0819422
Class 0:
Packet latency average = 27.2243
	minimum = 11
	maximum = 1118
	95th percentile = 108.5
	99th percentile = 256.5
Network latency average = 27.1084
	minimum = 11
	maximum = 1118
	95th percentile = 107.5
	99th percentile = 255.5
Slowest packet = 49717
Flit latency average = 27.1058
	minimum = 11
	maximum = 1118
	95th percentile = 107.5
	99th percentile = 255.5
Slowest flit = 49717
Fragmentation average = 0
	minimum = 0
	maximum = 0
Injected packet rate average = 0.325676
	minimum = 0 (at node 6)
	maximum = 0.604125 (at node 0)
Accepted packet rate average = 0.324889
	minimum = 0 (at node 2)
	maximum = 0.603042 (at node 4)
Injected flit rate average = 0.325676
	minimum = 0 (at node 6)
	maximum = 0.604125 (at node 0)
Accepted flit rate average= 0.324889
	minimum = 0 (at node 2)
	maximum = 0.603042 (at node 4)
Injected packet length average = 1
Accepted packet length average = 1
Total in-flight flits = 181 (181 measured)
====== Peak Queue Occupancy Statistics (Absolute Max) ======
  Overall Max VC Occupancy = 1
  Overall Max Buffer Occupancy = 48
latency change    = 0.117758
throughput change = 0.0780894
Class 0:
Packet latency average = 28.9305
	minimum = 11
	maximum = 1118
	95th percentile = 113.5
	99th percentile = 272.5
Network latency average = 28.7785
	minimum = 11
	maximum = 1118
	95th percentile = 112.5
	99th percentile = 269.5
Slowest packet = 49717
Flit latency average = 28.7762
	minimum = 11
	maximum = 1118
	95th percentile = 112.5
	99th percentile = 269.5
Slowest flit = 49717
Fragmentation average = 0
	minimum = 0
	maximum = 0
Injected packet rate average = 0.350827
	minimum = 0.0183333 (at node 6)
	maximum = 0.604296 (at node 0)
Accepted packet rate average = 0.350152
	minimum = 0.0181481 (at node 2)
	maximum = 0.603593 (at node 4)
Injected flit rate average = 0.350827
	minimum = 0.0183333 (at node 6)
	maximum = 0.604296 (at node 0)
Accepted flit rate average= 0.350152
	minimum = 0.0181481 (at node 2)
	maximum = 0.603593 (at node 4)
Injected packet length average = 1
Accepted packet length average = 1
Total in-flight flits = 175 (175 measured)
====== Peak Queue Occupancy Statistics (Absolute Max) ======
  Overall Max VC Occupancy = 1
  Overall Max Buffer Occupancy = 48
latency change    = 0.0589739
throughput change = 0.0721497
Class 0:
Packet latency average = 33.5743
	minimum = 11
	maximum = 1118
	95th percentile = 130.5
	99th percentile = 297.5
Network latency average = 32.9002
	minimum = 11
	maximum = 1118
	95th percentile = 123.5
	99th percentile = 294.5
Slowest packet = 49717
Flit latency average = 32.8978
	minimum = 11
	maximum = 1118
	95th percentile = 123.5
	99th percentile = 294.5
Slowest flit = 49717
Fragmentation average = 0
	minimum = 0
	maximum = 0
Injected packet rate average = 0.376311
	minimum = 0.0763333 (at node 6)
	maximum = 0.605433 (at node 0)
Accepted packet rate average = 0.374926
	minimum = 0.0737 (at node 2)
	maximum = 0.604533 (at node 4)
Injected flit rate average = 0.376311
	minimum = 0.0763333 (at node 6)
	maximum = 0.605433 (at node 0)
Accepted flit rate average= 0.374926
	minimum = 0.0737 (at node 2)
	maximum = 0.604533 (at node 4)
Injected packet length average = 1
Accepted packet length average = 1
Total in-flight flits = 385 (385 measured)
====== Peak Queue Occupancy Statistics (Absolute Max) ======
  Overall Max VC Occupancy = 1
  Overall Max Buffer Occupancy = 48
latency change    = 0.138314
throughput change = 0.0660762
Class 0:
Packet latency average = 37.2851
	minimum = 11
	maximum = 1118
	95th percentile = 144.5
	99th percentile = 313.5
Network latency average = 36.7018
	minimum = 11
	maximum = 1118
	95th percentile = 139.5
	99th percentile = 311.5
Slowest packet = 49717
Flit latency average = 36.6994
	minimum = 11
	maximum = 1118
	95th percentile = 139.5
	99th percentile = 311.5
Slowest flit = 49717
Fragmentation average = 0
	minimum = 0
	maximum = 0
Injected packet rate average = 0.396764
	minimum = 0.124545 (at node 6)
	maximum = 0.605242 (at node 0)
Accepted packet rate average = 0.395609
	minimum = 0.122515 (at node 2)
	maximum = 0.604636 (at node 4)
Injected flit rate average = 0.396764
	minimum = 0.124545 (at node 6)
	maximum = 0.605242 (at node 0)
Accepted flit rate average= 0.395609
	minimum = 0.122515 (at node 2)
	maximum = 0.604636 (at node 4)
Injected packet length average = 1
Accepted packet length average = 1
Total in-flight flits = 354 (354 measured)
====== Peak Queue Occupancy Statistics (Absolute Max) ======
  Overall Max VC Occupancy = 1
  Overall Max Buffer Occupancy = 48
latency change    = 0.0995263
throughput change = 0.0522826
Class 0:
Packet latency average = 39.5453
	minimum = 11
	maximum = 1118
	95th percentile = 152.5
	99th percentile = 324.5
Network latency average = 39.016
	minimum = 11
	maximum = 1118
	95th percentile = 147.5
	99th percentile = 321.5
Slowest packet = 49717
Flit latency average = 39.0137
	minimum = 11
	maximum = 1118
	95th percentile = 147.5
	99th percentile = 321.5
Slowest flit = 49717
Fragmentation average = 0
	minimum = 0
	maximum = 0
Injected packet rate average = 0.413787
	minimum = 0.164917 (at node 6)
	maximum = 0.603194 (at node 0)
Accepted packet rate average = 0.413204
	minimum = 0.164 (at node 2)
	maximum = 0.603056 (at node 4)
Injected flit rate average = 0.413787
	minimum = 0.164917 (at node 6)
	maximum = 0.603194 (at node 0)
Accepted flit rate average= 0.413204
	minimum = 0.164 (at node 2)
	maximum = 0.603056 (at node 4)
Injected packet length average = 1
Accepted packet length average = 1
Total in-flight flits = 200 (200 measured)
====== Peak Queue Occupancy Statistics (Absolute Max) ======
  Overall Max VC Occupancy = 1
  Overall Max Buffer Occupancy = 48
latency change    = 0.0571554
throughput change = 0.0425802
Class 0:
Packet latency average = 41.2917
	minimum = 11
	maximum = 1275
	95th percentile = 156.5
	99th percentile = 338.5
Network latency average = 40.7903
	minimum = 11
	maximum = 1275
	95th percentile = 152.5
	99th percentile = 335.5
Slowest packet = 144156
Flit latency average = 40.7882
	minimum = 11
	maximum = 1275
	95th percentile = 152.5
	99th percentile = 335.5
Slowest flit = 144156
Fragmentation average = 0
	minimum = 0
	maximum = 0
Injected packet rate average = 0.428051
	minimum = 0.198077 (at node 6)
	maximum = 0.603103 (at node 0)
Accepted packet rate average = 0.427427
	minimum = 0.196974 (at node 2)
	maximum = 0.603 (at node 4)
Injected flit rate average = 0.428051
	minimum = 0.198077 (at node 6)
	maximum = 0.603103 (at node 0)
Accepted flit rate average= 0.427427
	minimum = 0.196974 (at node 2)
	maximum = 0.603 (at node 4)
Injected packet length average = 1
Accepted packet length average = 1
Total in-flight flits = 230 (230 measured)
====== Peak Queue Occupancy Statistics (Absolute Max) ======
  Overall Max VC Occupancy = 1
  Overall Max Buffer Occupancy = 48
latency change    = 0.0422936
throughput change = 0.0332773
Class 0:
Packet latency average = 41.8512
	minimum = 11
	maximum = 1275
	95th percentile = 157.5
	99th percentile = 332.5
Network latency average = 41.3963
	minimum = 11
	maximum = 1275
	95th percentile = 153.5
	99th percentile = 331.5
Slowest packet = 144156
Flit latency average = 41.3943
	minimum = 11
	maximum = 1275
	95th percentile = 153.5
	99th percentile = 331.5
Slowest flit = 144156
Fragmentation average = 0
	minimum = 0
	maximum = 0
Injected packet rate average = 0.440085
	minimum = 0.227929 (at node 6)
	maximum = 0.602405 (at node 0)
Accepted packet rate average = 0.439241
	minimum = 0.226357 (at node 2)
	maximum = 0.601952 (at node 4)
Injected flit rate average = 0.440085
	minimum = 0.227929 (at node 6)
	maximum = 0.602405 (at node 0)
Accepted flit rate average= 0.439241
	minimum = 0.226357 (at node 2)
	maximum = 0.601952 (at node 4)
Injected packet length average = 1
Accepted packet length average = 1
Total in-flight flits = 330 (330 measured)
====== Peak Queue Occupancy Statistics (Absolute Max) ======
  Overall Max VC Occupancy = 1
  Overall Max Buffer Occupancy = 48
latency change    = 0.013368
throughput change = 0.026895
Class 0:
Packet latency average = 42.4594
	minimum = 11
	maximum = 1275
	95th percentile = 157.5
	99th percentile = 330.5
Network latency average = 42.0416
	minimum = 11
	maximum = 1275
	95th percentile = 154.5
	99th percentile = 328.5
Slowest packet = 144156
Flit latency average = 42.0397
	minimum = 11
	maximum = 1275
	95th percentile = 154.5
	99th percentile = 328.5
Slowest flit = 144156
Fragmentation average = 0
	minimum = 0
	maximum = 0
Injected packet rate average = 0.450951
	minimum = 0.253111 (at node 6)
	maximum = 0.602689 (at node 0)
Accepted packet rate average = 0.45018
	minimum = 0.251067 (at node 2)
	maximum = 0.602333 (at node 4)
Injected flit rate average = 0.450951
	minimum = 0.253111 (at node 6)
	maximum = 0.602689 (at node 0)
Accepted flit rate average= 0.45018
	minimum = 0.251067 (at node 2)
	maximum = 0.602333 (at node 4)
Injected packet length average = 1
Accepted packet length average = 1
Total in-flight flits = 323 (323 measured)
====== Peak Queue Occupancy Statistics (Absolute Max) ======
  Overall Max VC Occupancy = 1
  Overall Max Buffer Occupancy = 48
latency change    = 0.0143243
throughput change = 0.0243003
Draining all recorded packets ...
Draining remaining packets ...
Time taken is 51904 cycles
====== Overall Traffic Statistics ======
====== Traffic class 0 ======
Packet latency average = 42.6872 (1 samples)
	minimum = 11 (1 samples)
	maximum = 1275 (1 samples)
Network latency average = 42.2678 (1 samples)
	minimum = 11 (1 samples)
	maximum = 1275 (1 samples)
Flit latency average = 42.6759 (1 samples)
	minimum = 11 (1 samples)
	maximum = 1275 (1 samples)
Fragmentation average = 0 (1 samples)
	minimum = 0 (1 samples)
	maximum = 0 (1 samples)
Injected packet rate average = 0.450951 (1 samples)
	minimum = 0.253111 (1 samples)
	maximum = 0.602689 (1 samples)
Accepted packet rate average = 0.45018 (1 samples)
	minimum = 0.251067 (1 samples)
	maximum = 0.602333 (1 samples)
Injected flit rate average = 0.450951 (1 samples)
	minimum = 0.253111 (1 samples)
	maximum = 0.602689 (1 samples)
Accepted flit rate average = 0.45018 (1 samples)
	minimum = 0.251067 (1 samples)
	maximum = 0.602333 (1 samples)
Injected packet size average = 1 (1 samples)
Accepted packet size average = 1 (1 samples)
Hops average = 3.71322 (1 samples)
Total run time 11.5476
====== Hybrid Routing Split Statistics ======
XY packets = 141215
Racke packets = 49439
XY fraction = 0.740687
Racke fraction = 0.259313
Flow (0 -> 4) alpha=0.433043 xy_packets=20994 racke_packets=7462 racke_fraction=0.262229
Flow (1 -> 3) alpha=0.433376 xy_packets=11489 racke_packets=7405 racke_fraction=0.391923
Flow (2 -> 6) alpha=0.433043 xy_packets=16182 racke_packets=7296 racke_fraction=0.310759
Flow (3 -> 1) alpha=0.417565 xy_packets=8817 racke_packets=5114 racke_fraction=0.367095
Flow (4 -> 8) alpha=0.435399 xy_packets=26781 racke_packets=3665 racke_fraction=0.120377
Flow (5 -> 7) alpha=0.411878 xy_packets=13725 racke_packets=2533 racke_fraction=0.1558
Flow (6 -> 2) alpha=0.435399 xy_packets=7156 racke_packets=4679 racke_fraction=0.395353
Flow (7 -> 5) alpha=0.435399 xy_packets=21581 racke_packets=4604 racke_fraction=0.175826
Flow (8 -> 0) alpha=0.435679 xy_packets=14490 racke_packets=6681 racke_fraction=0.315573
====== Hybrid Routing Window Statistics ======
Window [0,3000) xy_packets=1291 racke_packets=0 xy_fraction=1
Window [3000,6000) xy_packets=2693 racke_packets=0 xy_fraction=1
Window [6000,9000) xy_packets=4078 racke_packets=0 xy_fraction=1
Window [9000,12000) xy_packets=5412 racke_packets=0 xy_fraction=1
Window [12000,15000) xy_packets=6798 racke_packets=0 xy_fraction=1
Window [15000,18000) xy_packets=8184 racke_packets=0 xy_fraction=1
Window [18000,21000) xy_packets=9462 racke_packets=0 xy_fraction=1
Window [21000,24000) xy_packets=8813 racke_packets=1976 xy_fraction=0.81685
Window [24000,27000) xy_packets=9838 racke_packets=2253 xy_fraction=0.813663
Window [27000,30000) xy_packets=10157 racke_packets=3375 xy_fraction=0.750591
Window [30000,33000) xy_packets=11443 racke_packets=3462 xy_fraction=0.767729
Window [33000,36000) xy_packets=11044 racke_packets=5309 xy_fraction=0.67535
Window [36000,39000) xy_packets=9554 racke_packets=6681 xy_fraction=0.588482
Window [39000,42000) xy_packets=8670 racke_packets=7558 xy_fraction=0.534262
Window [42000,45000) xy_packets=10357 racke_packets=5822 xy_fraction=0.640151
Window [45000,48000) xy_packets=10708 racke_packets=5398 xy_fraction=0.664845
Window [48000,51000) xy_packets=10186 racke_packets=6097 xy_fraction=0.62556
Window [51000,54000) xy_packets=2527 racke_packets=1508 xy_fraction=0.62627

