BEGIN Configuration File: D:\noc_huawei\noc\booksim2-noc_speedup_study\booksim2-noc_speedup_study\tests\data\results\fixed_perm_growth_models_perm_4_3_6_1_8_7_2_5_0_peak_0p6_current_defaults\tmp_configs\ordered_fill_dim_order_s2204.config
num_vcs     = 48;
vc_buf_size = 16;
wait_for_tail_credit = 1;

vc_allocator = islip;
sw_allocator = islip;
alloc_iters  = 16;

credit_delay   = 2;
routing_delay  = 0;
vc_alloc_delay = 1;
sw_alloc_delay = 1;
st_final_delay = 1;

input_speedup     = 1;
output_speedup    = 1;
internal_speedup  = 2.0;

sim_type = latency;
latency_thres  = 100000.0;
sim_count      = 1;
queue_sample_period_cycles = 0;

topology = mesh;
k  = 3;
n  = 2;

hybrid_transition_mode = linear_prob;
hybrid_xy_low_threshold = 0.35;
hybrid_racke_high_threshold = 0.65;
hybrid_buffer_soft_threshold = 0.50;
hybrid_buffer_hard_threshold = 0.85;
hybrid_buffer_release_threshold = 0.35;
hybrid_rate_soft_threshold = 0.55;
hybrid_rate_hard_threshold = 0.90;
hybrid_rate_weight = 0.25;
hybrid_congestion_alpha = 0.25;
hybrid_racke_increase_step = 0.25;
hybrid_racke_decrease_step = 0.10;
hybrid_epoch_cycles = 200;
hybrid_hold_cycles = 600;
hybrid_enable_midflight_override = 1;
hybrid_feedback_delay_per_hop = 1;
hybrid_flow_increase_step = 0.20;
hybrid_flow_decrease_step = 0.08;
hybrid_flow_hard_threshold = 0.95;

packet_size = 1;

scheduled_injection_rates = {0.10,0.20,0.30};
scheduled_phase_cycles = {1000,1000,1000};
scheduled_default_phase_cycles = 1000;

custom_perm_array = {4,3,6,1,8,7,2,5,0};
warmup_periods = 2;
seed = 2204;
hybrid_flow_hotspot_alpha = 0.85;
injection_process = ordered_fill;
perm_seed = 2204;
ordered_injection_phase_cycles = {3000,3000,3000,3000,3000,3000,3000,3000,3000,3000,3000,3000,3000,3000};
routing_function = dim_order;
injection_rate = 0.6;
max_samples = 22;
ordered_injection_source_order = {4,0,7,2,8,1,5,3,6};
hybrid_flow_hotspot_threshold = 1.1;
ordered_injection_flow_peak_rate = 0.6;
ordered_injection_coefficients = {0.0833333333333333,0.166666666666667,0.25,0.333333333333333,0.416666666666667,0.5,0.583333333333333,0.666666666666667,0.75,0.833333333333333,0.916666666666667,1.0,1.0,1.0};
hybrid_stats_window_cycles = 3000;
traffic = custom_perm;
sample_period = 3000;

END Configuration File: D:\noc_huawei\noc\booksim2-noc_speedup_study\booksim2-noc_speedup_study\tests\data\results\fixed_perm_growth_models_perm_4_3_6_1_8_7_2_5_0_peak_0p6_current_defaults\tmp_configs\ordered_fill_dim_order_s2204.config
Class 0:
Packet latency average = 11
	minimum = 11
	maximum = 11
	95th percentile = 11.5
	99th percentile = 11.5
Network latency average = 11
	minimum = 11
	maximum = 11
	95th percentile = 11.5
	99th percentile = 11.5
Slowest packet = 0
Flit latency average = 11
	minimum = 11
	maximum = 11
	95th percentile = 11.5
	99th percentile = 11.5
Slowest flit = 0
Fragmentation average = 0
	minimum = 0
	maximum = 0
Injected packet rate average = 0.0502593
	minimum = 0 (at node 0)
	maximum = 0.452333 (at node 4)
Accepted packet rate average = 0.0500741
	minimum = 0 (at node 0)
	maximum = 0.450667 (at node 8)
Injected flit rate average = 0.0502593
	minimum = 0 (at node 0)
	maximum = 0.452333 (at node 4)
Accepted flit rate average= 0.0500741
	minimum = 0 (at node 0)
	maximum = 0.450667 (at node 8)
Injected packet length average = 1
Accepted packet length average = 1
Total in-flight flits = 5 (0 measured)
====== Peak Queue Occupancy Statistics (Absolute Max) ======
  Overall Max VC Occupancy = 1
  Overall Max Buffer Occupancy = 1
latency change    = 1
throughput change = 1
Class 0:
Packet latency average = 11
	minimum = 11
	maximum = 11
	95th percentile = 11.5
	99th percentile = 11.5
Network latency average = 11
	minimum = 11
	maximum = 11
	95th percentile = 11.5
	99th percentile = 11.5
Slowest packet = 0
Flit latency average = 11
	minimum = 11
	maximum = 11
	95th percentile = 11.5
	99th percentile = 11.5
Slowest flit = 0
Fragmentation average = 0
	minimum = 0
	maximum = 0
Injected packet rate average = 0.0757037
	minimum = 0 (at node 1)
	maximum = 0.522833 (at node 4)
Accepted packet rate average = 0.0755741
	minimum = 0 (at node 0)
	maximum = 0.522 (at node 8)
Injected flit rate average = 0.0757037
	minimum = 0 (at node 1)
	maximum = 0.522833 (at node 4)
Accepted flit rate average= 0.0755741
	minimum = 0 (at node 0)
	maximum = 0.522 (at node 8)
Injected packet length average = 1
Accepted packet length average = 1
Total in-flight flits = 7 (0 measured)
====== Peak Queue Occupancy Statistics (Absolute Max) ======
  Overall Max VC Occupancy = 1
  Overall Max Buffer Occupancy = 1
latency change    = 0
throughput change = 0.337417
Warmed up ...Time used is 6000 cycles
Class 0:
Packet latency average = 11
	minimum = 11
	maximum = 11
	95th percentile = 11.5
	99th percentile = 11.5
Network latency average = 11
	minimum = 11
	maximum = 11
	95th percentile = 11.5
	99th percentile = 11.5
Slowest packet = 4088
Flit latency average = 11
	minimum = 11
	maximum = 11
	95th percentile = 11.5
	99th percentile = 11.5
Slowest flit = 4081
Fragmentation average = 0
	minimum = 0
	maximum = 0
Injected packet rate average = 0.150963
	minimum = 0 (at node 1)
	maximum = 0.605667 (at node 4)
Accepted packet rate average = 0.150667
	minimum = 0 (at node 0)
	maximum = 0.605333 (at node 8)
Injected flit rate average = 0.150963
	minimum = 0 (at node 1)
	maximum = 0.605667 (at node 4)
Accepted flit rate average= 0.150667
	minimum = 0 (at node 0)
	maximum = 0.605333 (at node 8)
Injected packet length average = 1
Accepted packet length average = 1
Total in-flight flits = 15 (15 measured)
====== Peak Queue Occupancy Statistics (Absolute Max) ======
  Overall Max VC Occupancy = 1
  Overall Max Buffer Occupancy = 1
latency change    = 0
throughput change = 0.498402
Class 0:
Packet latency average = 11
	minimum = 11
	maximum = 11
	95th percentile = 11.5
	99th percentile = 11.5
Network latency average = 11
	minimum = 11
	maximum = 11
	95th percentile = 11.5
	99th percentile = 11.5
Slowest packet = 4088
Flit latency average = 11
	minimum = 11
	maximum = 11
	95th percentile = 11.5
	99th percentile = 11.5
Slowest flit = 4081
Fragmentation average = 0
	minimum = 0
	maximum = 0
Injected packet rate average = 0.174019
	minimum = 0 (at node 1)
	maximum = 0.597167 (at node 0)
Accepted packet rate average = 0.173815
	minimum = 0 (at node 0)
	maximum = 0.596833 (at node 4)
Injected flit rate average = 0.174019
	minimum = 0 (at node 1)
	maximum = 0.597167 (at node 0)
Accepted flit rate average= 0.173815
	minimum = 0 (at node 0)
	maximum = 0.596833 (at node 4)
Injected packet length average = 1
Accepted packet length average = 1
Total in-flight flits = 18 (18 measured)
====== Peak Queue Occupancy Statistics (Absolute Max) ======
  Overall Max VC Occupancy = 1
  Overall Max Buffer Occupancy = 1
latency change    = 0
throughput change = 0.133177
Class 0:
Packet latency average = 11.5101
	minimum = 11
	maximum = 17
	95th percentile = 17.5
	99th percentile = 17.5
Network latency average = 11.5101
	minimum = 11
	maximum = 17
	95th percentile = 17.5
	99th percentile = 17.5
Slowest packet = 13497
Flit latency average = 11.5099
	minimum = 11
	maximum = 17
	95th percentile = 17.5
	99th percentile = 17.5
Slowest flit = 13497
Fragmentation average = 0
	minimum = 0
	maximum = 0
Injected packet rate average = 0.198383
	minimum = 0 (at node 1)
	maximum = 0.595444 (at node 0)
Accepted packet rate average = 0.19816
	minimum = 0 (at node 0)
	maximum = 0.594778 (at node 4)
Injected flit rate average = 0.198383
	minimum = 0 (at node 1)
	maximum = 0.595444 (at node 0)
Accepted flit rate average= 0.19816
	minimum = 0 (at node 0)
	maximum = 0.594778 (at node 4)
Injected packet length average = 1
Accepted packet length average = 1
Total in-flight flits = 25 (25 measured)
====== Peak Queue Occupancy Statistics (Absolute Max) ======
  Overall Max VC Occupancy = 1
  Overall Max Buffer Occupancy = 1
latency change    = 0.0443174
throughput change = 0.122858
Class 0:
Packet latency average = 12.0096
	minimum = 11
	maximum = 17
	95th percentile = 17.5
	99th percentile = 17.5
Network latency average = 12.0096
	minimum = 11
	maximum = 17
	95th percentile = 17.5
	99th percentile = 17.5
Slowest packet = 13497
Flit latency average = 12.0093
	minimum = 11
	maximum = 17
	95th percentile = 17.5
	99th percentile = 17.5
Slowest flit = 13497
Fragmentation average = 0
	minimum = 0
	maximum = 0
Injected packet rate average = 0.224148
	minimum = 0 (at node 1)
	maximum = 0.598333 (at node 4)
Accepted packet rate average = 0.223815
	minimum = 0 (at node 1)
	maximum = 0.598083 (at node 8)
Injected flit rate average = 0.224148
	minimum = 0 (at node 1)
	maximum = 0.598333 (at node 4)
Accepted flit rate average= 0.223815
	minimum = 0 (at node 1)
	maximum = 0.598083 (at node 8)
Injected packet length average = 1
Accepted packet length average = 1
Total in-flight flits = 43 (43 measured)
====== Peak Queue Occupancy Statistics (Absolute Max) ======
  Overall Max VC Occupancy = 1
  Overall Max Buffer Occupancy = 1
latency change    = 0.0415887
throughput change = 0.114623
Class 0:
Packet latency average = 12.3881
	minimum = 11
	maximum = 21
	95th percentile = 17.5
	99th percentile = 18.5
Network latency average = 12.3881
	minimum = 11
	maximum = 21
	95th percentile = 17.5
	99th percentile = 18.5
Slowest packet = 30665
Flit latency average = 12.3878
	minimum = 11
	maximum = 21
	95th percentile = 17.5
	99th percentile = 18.5
Slowest flit = 30665
Fragmentation average = 0
	minimum = 0
	maximum = 0
Injected packet rate average = 0.248437
	minimum = 0 (at node 3)
	maximum = 0.597933 (at node 4)
Accepted packet rate average = 0.248222
	minimum = 0 (at node 1)
	maximum = 0.598 (at node 8)
Injected flit rate average = 0.248437
	minimum = 0 (at node 3)
	maximum = 0.597933 (at node 4)
Accepted flit rate average= 0.248222
	minimum = 0 (at node 1)
	maximum = 0.598 (at node 8)
Injected packet length average = 1
Accepted packet length average = 1
Total in-flight flits = 36 (36 measured)
====== Peak Queue Occupancy Statistics (Absolute Max) ======
  Overall Max VC Occupancy = 1
  Overall Max Buffer Occupancy = 2
latency change    = 0.0305579
throughput change = 0.0983289
Class 0:
Packet latency average = 27.8924
	minimum = 11
	maximum = 1835
	95th percentile = 87.5
	99th percentile = 391.5
Network latency average = 21.2228
	minimum = 11
	maximum = 1835
	95th percentile = 75.5
	99th percentile = 177.5
Slowest packet = 40420
Flit latency average = 21.2211
	minimum = 11
	maximum = 1835
	95th percentile = 75.5
	99th percentile = 177.5
Slowest flit = 40420
Fragmentation average = 0
	minimum = 0
	maximum = 0
Injected packet rate average = 0.27121
	minimum = 0 (at node 3)
	maximum = 0.599056 (at node 4)
Accepted packet rate average = 0.26992
	minimum = 0 (at node 1)
	maximum = 0.599056 (at node 8)
Injected flit rate average = 0.27121
	minimum = 0 (at node 3)
	maximum = 0.599056 (at node 4)
Accepted flit rate average= 0.26992
	minimum = 0 (at node 1)
	maximum = 0.599056 (at node 8)
Injected packet length average = 1
Accepted packet length average = 1
Total in-flight flits = 217 (217 measured)
====== Peak Queue Occupancy Statistics (Absolute Max) ======
  Overall Max VC Occupancy = 1
  Overall Max Buffer Occupancy = 48
latency change    = 0.555861
throughput change = 0.0803851
Class 0:
Packet latency average = 65.1135
	minimum = 11
	maximum = 2310
	95th percentile = 479.5
	99th percentile = 877.5
Network latency average = 29.0474
	minimum = 11
	maximum = 1998
	95th percentile = 95.5
	99th percentile = 278.5
Slowest packet = 41567
Flit latency average = 29.0451
	minimum = 11
	maximum = 1998
	95th percentile = 95.5
	99th percentile = 278.5
Slowest flit = 41858
Fragmentation average = 0
	minimum = 0
	maximum = 0
Injected packet rate average = 0.293778
	minimum = 0 (at node 3)
	maximum = 0.597143 (at node 4)
Accepted packet rate average = 0.292619
	minimum = 0 (at node 1)
	maximum = 0.597095 (at node 8)
Injected flit rate average = 0.293778
	minimum = 0 (at node 3)
	maximum = 0.597143 (at node 4)
Accepted flit rate average= 0.292619
	minimum = 0 (at node 1)
	maximum = 0.597095 (at node 8)
Injected packet length average = 1
Accepted packet length average = 1
Total in-flight flits = 226 (226 measured)
====== Peak Queue Occupancy Statistics (Absolute Max) ======
  Overall Max VC Occupancy = 1
  Overall Max Buffer Occupancy = 48
latency change    = 0.571634
throughput change = 0.0775729
Class 0:
Packet latency average = 108.983
	minimum = 11
	maximum = 3057
	95th percentile = 869.5
	99th percentile = 999.5
Network latency average = 33.7387
	minimum = 11
	maximum = 2018
	95th percentile = 115.5
	99th percentile = 324.5
Slowest packet = 41567
Flit latency average = 33.7364
	minimum = 11
	maximum = 2018
	95th percentile = 115.5
	99th percentile = 324.5
Slowest flit = 60378
Fragmentation average = 0
	minimum = 0
	maximum = 0
Injected packet rate average = 0.316778
	minimum = 0 (at node 6)
	maximum = 0.597208 (at node 4)
Accepted packet rate average = 0.315718
	minimum = 0 (at node 2)
	maximum = 0.597167 (at node 8)
Injected flit rate average = 0.316778
	minimum = 0 (at node 6)
	maximum = 0.597208 (at node 4)
Accepted flit rate average= 0.315718
	minimum = 0 (at node 2)
	maximum = 0.597167 (at node 8)
Injected packet length average = 1
Accepted packet length average = 1
Total in-flight flits = 237 (237 measured)
====== Peak Queue Occupancy Statistics (Absolute Max) ======
  Overall Max VC Occupancy = 1
  Overall Max Buffer Occupancy = 48
latency change    = 0.402533
throughput change = 0.073162
Class 0:
Packet latency average = 154.715
	minimum = 11
	maximum = 3435
	95th percentile = 999.5
	99th percentile = 999.5
Network latency average = 36.6058
	minimum = 11
	maximum = 2062
	95th percentile = 135.5
	99th percentile = 364.5
Slowest packet = 41567
Flit latency average = 36.6036
	minimum = 11
	maximum = 2062
	95th percentile = 135.5
	99th percentile = 364.5
Slowest flit = 73677
Fragmentation average = 0
	minimum = 0
	maximum = 0
Injected packet rate average = 0.340049
	minimum = 0.017 (at node 6)
	maximum = 0.598037 (at node 0)
Accepted packet rate average = 0.339115
	minimum = 0.016963 (at node 2)
	maximum = 0.597963 (at node 8)
Injected flit rate average = 0.340049
	minimum = 0.017 (at node 6)
	maximum = 0.598037 (at node 0)
Accepted flit rate average= 0.339115
	minimum = 0.016963 (at node 2)
	maximum = 0.597963 (at node 8)
Injected packet length average = 1
Accepted packet length average = 1
Total in-flight flits = 236 (236 measured)
====== Peak Queue Occupancy Statistics (Absolute Max) ======
  Overall Max VC Occupancy = 1
  Overall Max Buffer Occupancy = 48
latency change    = 0.295593
throughput change = 0.0689961
Class 0:
Packet latency average = 208.619
	minimum = 11
	maximum = 3740
	95th percentile = 999.5
	99th percentile = 999.5
Network latency average = 42.6043
	minimum = 11
	maximum = 2062
	95th percentile = 150.5
	99th percentile = 472.5
Slowest packet = 41567
Flit latency average = 42.6021
	minimum = 11
	maximum = 2062
	95th percentile = 150.5
	99th percentile = 472.5
Slowest flit = 73677
Fragmentation average = 0
	minimum = 0
	maximum = 0
Injected packet rate average = 0.362263
	minimum = 0.0724667 (at node 6)
	maximum = 0.598467 (at node 0)
Accepted packet rate average = 0.360722
	minimum = 0.0681333 (at node 2)
	maximum = 0.598333 (at node 4)
Injected flit rate average = 0.362263
	minimum = 0.0724667 (at node 6)
	maximum = 0.598467 (at node 0)
Accepted flit rate average= 0.360722
	minimum = 0.0681333 (at node 2)
	maximum = 0.598333 (at node 4)
Injected packet length average = 1
Accepted packet length average = 1
Total in-flight flits = 426 (426 measured)
====== Peak Queue Occupancy Statistics (Absolute Max) ======
  Overall Max VC Occupancy = 1
  Overall Max Buffer Occupancy = 48
latency change    = 0.258382
throughput change = 0.0598993
Class 0:
Packet latency average = 275.534
	minimum = 11
	maximum = 4497
	95th percentile = 999.5
	99th percentile = 999.5
Network latency average = 48.0863
	minimum = 11
	maximum = 2062
	95th percentile = 176.5
	99th percentile = 584.5
Slowest packet = 41567
Flit latency average = 48.084
	minimum = 11
	maximum = 2062
	95th percentile = 176.5
	99th percentile = 584.5
Slowest flit = 73677
Fragmentation average = 0
	minimum = 0
	maximum = 0
Injected packet rate average = 0.379916
	minimum = 0.106879 (at node 6)
	maximum = 0.599424 (at node 0)
Accepted packet rate average = 0.378535
	minimum = 0.102909 (at node 2)
	maximum = 0.599212 (at node 4)
Injected flit rate average = 0.379916
	minimum = 0.106879 (at node 6)
	maximum = 0.599424 (at node 0)
Accepted flit rate average= 0.378535
	minimum = 0.102909 (at node 2)
	maximum = 0.599212 (at node 4)
Injected packet length average = 1
Accepted packet length average = 1
Total in-flight flits = 418 (418 measured)
====== Peak Queue Occupancy Statistics (Absolute Max) ======
  Overall Max VC Occupancy = 1
  Overall Max Buffer Occupancy = 48
latency change    = 0.242855
throughput change = 0.047058
Class 0:
Packet latency average = 350.729
	minimum = 11
	maximum = 4915
	95th percentile = 999.5
	99th percentile = 999.5
Network latency average = 52.3135
	minimum = 11
	maximum = 2062
	95th percentile = 188.5
	99th percentile = 719.5
Slowest packet = 41567
Flit latency average = 52.3112
	minimum = 11
	maximum = 2062
	95th percentile = 188.5
	99th percentile = 719.5
Slowest flit = 73677
Fragmentation average = 0
	minimum = 0
	maximum = 0
Injected packet rate average = 0.394806
	minimum = 0.142556 (at node 6)
	maximum = 0.600306 (at node 4)
Accepted packet rate average = 0.393552
	minimum = 0.13925 (at node 2)
	maximum = 0.600306 (at node 8)
Injected flit rate average = 0.394806
	minimum = 0.142556 (at node 6)
	maximum = 0.600306 (at node 4)
Accepted flit rate average= 0.393552
	minimum = 0.13925 (at node 2)
	maximum = 0.600306 (at node 8)
Injected packet length average = 1
Accepted packet length average = 1
Total in-flight flits = 415 (415 measured)
====== Peak Queue Occupancy Statistics (Absolute Max) ======
  Overall Max VC Occupancy = 1
  Overall Max Buffer Occupancy = 48
latency change    = 0.214397
throughput change = 0.0381578
Class 0:
Packet latency average = 431.71
	minimum = 11
	maximum = 5422
	95th percentile = 999.5
	99th percentile = 999.5
Network latency average = 55.6451
	minimum = 11
	maximum = 2107
	95th percentile = 192.5
	99th percentile = 806.5
Slowest packet = 41567
Flit latency average = 55.6429
	minimum = 11
	maximum = 2107
	95th percentile = 192.5
	99th percentile = 806.5
Slowest flit = 124351
Fragmentation average = 0
	minimum = 0
	maximum = 0
Injected packet rate average = 0.407088
	minimum = 0.170103 (at node 6)
	maximum = 0.600513 (at node 0)
Accepted packet rate average = 0.405897
	minimum = 0.166872 (at node 2)
	maximum = 0.600359 (at node 4)
Injected flit rate average = 0.407088
	minimum = 0.170103 (at node 6)
	maximum = 0.600513 (at node 0)
Accepted flit rate average= 0.405897
	minimum = 0.166872 (at node 2)
	maximum = 0.600359 (at node 4)
Injected packet length average = 1
Accepted packet length average = 1
Total in-flight flits = 426 (426 measured)
====== Peak Queue Occupancy Statistics (Absolute Max) ======
  Overall Max VC Occupancy = 1
  Overall Max Buffer Occupancy = 48
latency change    = 0.187582
throughput change = 0.030414
Class 0:
Packet latency average = 516.103
	minimum = 11
	maximum = 6185
	95th percentile = 999.5
	99th percentile = 999.5
Network latency average = 58.2966
	minimum = 11
	maximum = 2132
	95th percentile = 203.5
	99th percentile = 999.5
Slowest packet = 41567
Flit latency average = 58.2945
	minimum = 11
	maximum = 2132
	95th percentile = 203.5
	99th percentile = 999.5
Slowest flit = 147276
Fragmentation average = 0
	minimum = 0
	maximum = 0
Injected packet rate average = 0.417786
	minimum = 0.189929 (at node 6)
	maximum = 0.601286 (at node 0)
Accepted packet rate average = 0.41672
	minimum = 0.186952 (at node 2)
	maximum = 0.601214 (at node 4)
Injected flit rate average = 0.417786
	minimum = 0.189929 (at node 6)
	maximum = 0.601286 (at node 0)
Accepted flit rate average= 0.41672
	minimum = 0.186952 (at node 2)
	maximum = 0.601214 (at node 4)
Injected packet length average = 1
Accepted packet length average = 1
Total in-flight flits = 410 (410 measured)
====== Peak Queue Occupancy Statistics (Absolute Max) ======
  Overall Max VC Occupancy = 1
  Overall Max Buffer Occupancy = 48
latency change    = 0.16352
throughput change = 0.0259698
Class 0:
Packet latency average = 603.068
	minimum = 11
	maximum = 6407
	95th percentile = 999.5
	99th percentile = 999.5
Network latency average = 60.5541
	minimum = 11
	maximum = 2132
	95th percentile = 212.5
	99th percentile = 999.5
Slowest packet = 41567
Flit latency average = 60.5521
	minimum = 11
	maximum = 2132
	95th percentile = 212.5
	99th percentile = 999.5
Slowest flit = 147276
Fragmentation average = 0
	minimum = 0
	maximum = 0
Injected packet rate average = 0.426872
	minimum = 0.214089 (at node 6)
	maximum = 0.601089 (at node 0)
Accepted packet rate average = 0.425847
	minimum = 0.211489 (at node 2)
	maximum = 0.601 (at node 4)
Injected flit rate average = 0.426872
	minimum = 0.214089 (at node 6)
	maximum = 0.601089 (at node 0)
Accepted flit rate average= 0.425847
	minimum = 0.211489 (at node 2)
	maximum = 0.601 (at node 4)
Injected packet length average = 1
Accepted packet length average = 1
Total in-flight flits = 425 (425 measured)
====== Peak Queue Occupancy Statistics (Absolute Max) ======
  Overall Max VC Occupancy = 1
  Overall Max Buffer Occupancy = 48
latency change    = 0.144205
throughput change = 0.0214334
Class 0:
Packet latency average = 691.707
	minimum = 11
	maximum = 6879
	95th percentile = 999.5
	99th percentile = 999.5
Network latency average = 62.4425
	minimum = 11
	maximum = 2132
	95th percentile = 220.5
	99th percentile = 999.5
Slowest packet = 41567
Flit latency average = 62.4406
	minimum = 11
	maximum = 2132
	95th percentile = 220.5
	99th percentile = 999.5
Slowest flit = 147276
Fragmentation average = 0
	minimum = 0
	maximum = 0
Injected packet rate average = 0.434866
	minimum = 0.231292 (at node 6)
	maximum = 0.600875 (at node 0)
Accepted packet rate average = 0.433905
	minimum = 0.228708 (at node 2)
	maximum = 0.600792 (at node 4)
Injected flit rate average = 0.434866
	minimum = 0.231292 (at node 6)
	maximum = 0.600875 (at node 0)
Accepted flit rate average= 0.433905
	minimum = 0.228708 (at node 2)
	maximum = 0.600792 (at node 4)
Injected packet length average = 1
Accepted packet length average = 1
Total in-flight flits = 425 (425 measured)
====== Peak Queue Occupancy Statistics (Absolute Max) ======
  Overall Max VC Occupancy = 1
  Overall Max Buffer Occupancy = 48
latency change    = 0.128146
throughput change = 0.0185713
Class 0:
Packet latency average = 781.678
	minimum = 11
	maximum = 7637
	95th percentile = 999.5
	99th percentile = 999.5
Network latency average = 64.0066
	minimum = 11
	maximum = 2132
	95th percentile = 225.5
	99th percentile = 999.5
Slowest packet = 41567
Flit latency average = 64.0048
	minimum = 11
	maximum = 2132
	95th percentile = 225.5
	99th percentile = 999.5
Slowest flit = 147276
Fragmentation average = 0
	minimum = 0
	maximum = 0
Injected packet rate average = 0.441987
	minimum = 0.244784 (at node 6)
	maximum = 0.600627 (at node 0)
Accepted packet rate average = 0.441094
	minimum = 0.242627 (at node 2)
	maximum = 0.600569 (at node 4)
Injected flit rate average = 0.441987
	minimum = 0.244784 (at node 6)
	maximum = 0.600627 (at node 0)
Accepted flit rate average= 0.441094
	minimum = 0.242627 (at node 2)
	maximum = 0.600569 (at node 4)
Injected packet length average = 1
Accepted packet length average = 1
Total in-flight flits = 421 (421 measured)
====== Peak Queue Occupancy Statistics (Absolute Max) ======
  Overall Max VC Occupancy = 1
  Overall Max Buffer Occupancy = 48
latency change    = 0.1151
throughput change = 0.0162972
Class 0:
Packet latency average = 873.19
	minimum = 11
	maximum = 7941
	95th percentile = 999.5
	99th percentile = 999.5
Network latency average = 65.3896
	minimum = 11
	maximum = 2132
	95th percentile = 230.5
	99th percentile = 999.5
Slowest packet = 41567
Flit latency average = 65.3878
	minimum = 11
	maximum = 2132
	95th percentile = 230.5
	99th percentile = 999.5
Slowest flit = 147276
Fragmentation average = 0
	minimum = 0
	maximum = 0
Injected packet rate average = 0.448259
	minimum = 0.262019 (at node 6)
	maximum = 0.599759 (at node 0)
Accepted packet rate average = 0.447424
	minimum = 0.259907 (at node 2)
	maximum = 0.599667 (at node 4)
Injected flit rate average = 0.448259
	minimum = 0.262019 (at node 6)
	maximum = 0.599759 (at node 0)
Accepted flit rate average= 0.447424
	minimum = 0.259907 (at node 2)
	maximum = 0.599667 (at node 4)
Injected packet length average = 1
Accepted packet length average = 1
Total in-flight flits = 416 (416 measured)
====== Peak Queue Occupancy Statistics (Absolute Max) ======
  Overall Max VC Occupancy = 1
  Overall Max Buffer Occupancy = 48
latency change    = 0.104802
throughput change = 0.0141481
Class 0:
Packet latency average = 966.412
	minimum = 11
	maximum = 8473
	95th percentile = 999.5
	99th percentile = 999.5
Network latency average = 66.6083
	minimum = 11
	maximum = 2141
	95th percentile = 233.5
	99th percentile = 999.5
Slowest packet = 41567
Flit latency average = 66.6067
	minimum = 11
	maximum = 2141
	95th percentile = 233.5
	99th percentile = 999.5
Slowest flit = 214130
Fragmentation average = 0
	minimum = 0
	maximum = 0
Injected packet rate average = 0.453795
	minimum = 0.273474 (at node 6)
	maximum = 0.60014 (at node 0)
Accepted packet rate average = 0.452986
	minimum = 0.271368 (at node 2)
	maximum = 0.600018 (at node 4)
Injected flit rate average = 0.453795
	minimum = 0.273474 (at node 6)
	maximum = 0.60014 (at node 0)
Accepted flit rate average= 0.452986
	minimum = 0.271368 (at node 2)
	maximum = 0.600018 (at node 4)
Injected packet length average = 1
Accepted packet length average = 1
Total in-flight flits = 423 (423 measured)
====== Peak Queue Occupancy Statistics (Absolute Max) ======
  Overall Max VC Occupancy = 1
  Overall Max Buffer Occupancy = 48
latency change    = 0.0964622
throughput change = 0.0122796
Class 0:
Packet latency average = 1061.03
	minimum = 11
	maximum = 9305
	95th percentile = 999.5
	99th percentile = 999.5
Network latency average = 67.6674
	minimum = 11
	maximum = 2322
	95th percentile = 236.5
	99th percentile = 999.5
Slowest packet = 41567
Flit latency average = 67.6658
	minimum = 11
	maximum = 2322
	95th percentile = 236.5
	99th percentile = 999.5
Slowest flit = 236224
Fragmentation average = 0
	minimum = 0
	maximum = 0
Injected packet rate average = 0.458743
	minimum = 0.283883 (at node 6)
	maximum = 0.600033 (at node 0)
Accepted packet rate average = 0.45798
	minimum = 0.282067 (at node 2)
	maximum = 0.599933 (at node 4)
Injected flit rate average = 0.458743
	minimum = 0.283883 (at node 6)
	maximum = 0.600033 (at node 0)
Accepted flit rate average= 0.45798
	minimum = 0.282067 (at node 2)
	maximum = 0.599933 (at node 4)
Injected packet length average = 1
Accepted packet length average = 1
Total in-flight flits = 420 (420 measured)
====== Peak Queue Occupancy Statistics (Absolute Max) ======
  Overall Max VC Occupancy = 1
  Overall Max Buffer Occupancy = 48
latency change    = 0.0891795
throughput change = 0.0109028
Draining all recorded packets ...
Class 0:
Remaining flits: 248542 248989 249238 249239 249286 249475 249583 249686 249708 249911 [...] (420 flits)
Measured flits: 248542 248989 249238 249239 249286 249475 249583 249686 249708 249911 [...] (384 flits)
Class 0:
Remaining flits: 253771 253927 254065 254298 254376 254537 254691 254781 254794 255021 [...] (416 flits)
Measured flits: 253771 253927 254065 254298 254376 254537 254691 254781 254794 255021 [...] (384 flits)
Class 0:
Remaining flits: 258439 258486 259187 259233 259410 259758 259874 259910 260157 260333 [...] (419 flits)
Measured flits: 258439 258486 259187 259233 259410 259758 259874 259910 260157 260333 [...] (387 flits)
Class 0:
Remaining flits: 263033 263701 263963 264207 264233 264261 264991 265025 265264 265441 [...] (416 flits)
Measured flits: 263033 263701 263963 264207 264233 264261 264991 265025 265264 265441 [...] (384 flits)
Class 0:
Remaining flits: 269188 269422 269659 269721 269878 269890 269896 270127 270320 270340 [...] (424 flits)
Measured flits: 269188 269422 269659 269721 269878 269890 269896 270127 270320 270340 [...] (386 flits)
Class 0:
Remaining flits: 273571 273643 273910 274152 274389 274390 274623 274832 274868 274951 [...] (425 flits)
Measured flits: 273571 273643 273910 274152 274389 274390 274623 274832 274868 274951 [...] (386 flits)
Class 0:
Remaining flits: 278667 278923 279038 279282 279397 279839 280023 280076 280113 280130 [...] (423 flits)
Measured flits: 278667 278923 279038 279282 279397 279839 280023 280076 280113 280130 [...] (225 flits)
Class 0:
Remaining flits: 283431 284021 284200 284235 284590 284765 284890 284908 284980 285148 [...] (423 flits)
Measured flits: 283431 284021 284200 284235 284590 284765 284890 284908 284980 285148 [...] (193 flits)
Class 0:
Remaining flits: 288026 289220 289333 289432 289632 289992 290095 290099 290130 290228 [...] (428 flits)
Measured flits: 288026 289220 289333 289432 289632 289992 290095 290099 290130 290228 [...] (111 flits)
Class 0:
Remaining flits: 294200 294424 294660 294669 294903 294971 295003 295131 295216 295220 [...] (431 flits)
Measured flits: 294200 294424 294660 294669 294903 295003 295131 295216 295369 295375 [...] (19 flits)
Draining remaining packets ...
Time taken is 76760 cycles
====== Overall Traffic Statistics ======
====== Traffic class 0 ======
Packet latency average = 1437.58 (1 samples)
	minimum = 11 (1 samples)
	maximum = 10663 (1 samples)
Network latency average = 75.6017 (1 samples)
	minimum = 11 (1 samples)
	maximum = 2322 (1 samples)
Flit latency average = 70.9194 (1 samples)
	minimum = 11 (1 samples)
	maximum = 2322 (1 samples)
Fragmentation average = 0 (1 samples)
	minimum = 0 (1 samples)
	maximum = 0 (1 samples)
Injected packet rate average = 0.458743 (1 samples)
	minimum = 0.283883 (1 samples)
	maximum = 0.600033 (1 samples)
Accepted packet rate average = 0.45798 (1 samples)
	minimum = 0.282067 (1 samples)
	maximum = 0.599933 (1 samples)
Injected flit rate average = 0.458743 (1 samples)
	minimum = 0.283883 (1 samples)
	maximum = 0.600033 (1 samples)
Accepted flit rate average = 0.45798 (1 samples)
	minimum = 0.282067 (1 samples)
	maximum = 0.599933 (1 samples)
Injected packet size average = 1 (1 samples)
Accepted packet size average = 1 (1 samples)
Hops average = 3.6226 (1 samples)
Total run time 28.2398

