BEGIN Configuration File: D:\noc_huawei\noc\booksim2-noc_speedup_study\booksim2-noc_speedup_study\tests\data\results\fixed_perm_growth_models_perm_4_3_6_1_8_7_2_5_0_peak_0p6_current_defaults\tmp_configs\ordered_fill_racke_tree_s2205.config
num_vcs     = 48;
vc_buf_size = 16;
wait_for_tail_credit = 1;

vc_allocator = islip;
sw_allocator = islip;
alloc_iters  = 16;

credit_delay   = 2;
routing_delay  = 0;
vc_alloc_delay = 1;
sw_alloc_delay = 1;
st_final_delay = 1;

input_speedup     = 1;
output_speedup    = 1;
internal_speedup  = 2.0;

sim_type = latency;
latency_thres  = 100000.0;
sim_count      = 1;
queue_sample_period_cycles = 0;

topology = mesh;
k  = 3;
n  = 2;

hybrid_transition_mode = linear_prob;
hybrid_xy_low_threshold = 0.35;
hybrid_racke_high_threshold = 0.65;
hybrid_buffer_soft_threshold = 0.50;
hybrid_buffer_hard_threshold = 0.85;
hybrid_buffer_release_threshold = 0.35;
hybrid_rate_soft_threshold = 0.55;
hybrid_rate_hard_threshold = 0.90;
hybrid_rate_weight = 0.25;
hybrid_congestion_alpha = 0.25;
hybrid_racke_increase_step = 0.25;
hybrid_racke_decrease_step = 0.10;
hybrid_epoch_cycles = 200;
hybrid_hold_cycles = 600;
hybrid_enable_midflight_override = 1;
hybrid_feedback_delay_per_hop = 1;
hybrid_flow_increase_step = 0.20;
hybrid_flow_decrease_step = 0.08;
hybrid_flow_hard_threshold = 0.95;

packet_size = 1;

scheduled_injection_rates = {0.10,0.20,0.30};
scheduled_phase_cycles = {1000,1000,1000};
scheduled_default_phase_cycles = 1000;

custom_perm_array = {4,3,6,1,8,7,2,5,0};
warmup_periods = 2;
seed = 2205;
hybrid_flow_hotspot_alpha = 0.85;
injection_process = ordered_fill;
perm_seed = 2205;
ordered_injection_phase_cycles = {3000,3000,3000,3000,3000,3000,3000,3000,3000,3000,3000,3000,3000,3000};
routing_function = racke_tree;
injection_rate = 0.6;
max_samples = 22;
ordered_injection_source_order = {4,0,7,2,8,1,5,3,6};
hybrid_flow_hotspot_threshold = 1.1;
ordered_injection_flow_peak_rate = 0.6;
ordered_injection_coefficients = {0.0833333333333333,0.166666666666667,0.25,0.333333333333333,0.416666666666667,0.5,0.583333333333333,0.666666666666667,0.75,0.833333333333333,0.916666666666667,1.0,1.0,1.0};
hybrid_stats_window_cycles = 3000;
traffic = custom_perm;
sample_period = 3000;

END Configuration File: D:\noc_huawei\noc\booksim2-noc_speedup_study\booksim2-noc_speedup_study\tests\data\results\fixed_perm_growth_models_perm_4_3_6_1_8_7_2_5_0_peak_0p6_current_defaults\tmp_configs\ordered_fill_racke_tree_s2205.config
Class 0:
Packet latency average = 13.2526
	minimum = 11
	maximum = 19
	95th percentile = 18.5
	99th percentile = 18.5
Network latency average = 13.2526
	minimum = 11
	maximum = 19
	95th percentile = 18.5
	99th percentile = 18.5
Slowest packet = 55
Flit latency average = 13.2526
	minimum = 11
	maximum = 19
	95th percentile = 18.5
	99th percentile = 18.5
Slowest flit = 55
Fragmentation average = 0
	minimum = 0
	maximum = 0
Injected packet rate average = 0.0501481
	minimum = 0 (at node 0)
	maximum = 0.451333 (at node 4)
Accepted packet rate average = 0.05
	minimum = 0 (at node 0)
	maximum = 0.45 (at node 8)
Injected flit rate average = 0.0501481
	minimum = 0 (at node 0)
	maximum = 0.451333 (at node 4)
Accepted flit rate average= 0.05
	minimum = 0 (at node 0)
	maximum = 0.45 (at node 8)
Injected packet length average = 1
Accepted packet length average = 1
Total in-flight flits = 4 (0 measured)
====== Peak Queue Occupancy Statistics (Absolute Max) ======
  Overall Max VC Occupancy = 1
  Overall Max Buffer Occupancy = 2
latency change    = 1
throughput change = 1
Class 0:
Packet latency average = 13.2375
	minimum = 11
	maximum = 19
	95th percentile = 18.5
	99th percentile = 18.5
Network latency average = 13.2375
	minimum = 11
	maximum = 19
	95th percentile = 18.5
	99th percentile = 18.5
Slowest packet = 55
Flit latency average = 13.2375
	minimum = 11
	maximum = 19
	95th percentile = 18.5
	99th percentile = 18.5
Slowest flit = 55
Fragmentation average = 0
	minimum = 0
	maximum = 0
Injected packet rate average = 0.0734444
	minimum = 0 (at node 1)
	maximum = 0.513667 (at node 4)
Accepted packet rate average = 0.0732037
	minimum = 0 (at node 0)
	maximum = 0.512167 (at node 8)
Injected flit rate average = 0.0734444
	minimum = 0 (at node 1)
	maximum = 0.513667 (at node 4)
Accepted flit rate average= 0.0732037
	minimum = 0 (at node 0)
	maximum = 0.512167 (at node 8)
Injected packet length average = 1
Accepted packet length average = 1
Total in-flight flits = 13 (0 measured)
====== Peak Queue Occupancy Statistics (Absolute Max) ======
  Overall Max VC Occupancy = 1
  Overall Max Buffer Occupancy = 2
latency change    = 0.00113703
throughput change = 0.316974
Warmed up ...Time used is 6000 cycles
Class 0:
Packet latency average = 13.3528
	minimum = 11
	maximum = 20
	95th percentile = 18.5
	99th percentile = 19.5
Network latency average = 13.3528
	minimum = 11
	maximum = 20
	95th percentile = 18.5
	99th percentile = 19.5
Slowest packet = 7133
Flit latency average = 13.3527
	minimum = 11
	maximum = 20
	95th percentile = 18.5
	99th percentile = 19.5
Slowest flit = 7133
Fragmentation average = 0
	minimum = 0
	maximum = 0
Injected packet rate average = 0.14937
	minimum = 0 (at node 1)
	maximum = 0.599333 (at node 4)
Accepted packet rate average = 0.148815
	minimum = 0 (at node 0)
	maximum = 0.598333 (at node 8)
Injected flit rate average = 0.14937
	minimum = 0 (at node 1)
	maximum = 0.599333 (at node 4)
Accepted flit rate average= 0.148815
	minimum = 0 (at node 0)
	maximum = 0.598333 (at node 8)
Injected packet length average = 1
Accepted packet length average = 1
Total in-flight flits = 28 (28 measured)
====== Peak Queue Occupancy Statistics (Absolute Max) ======
  Overall Max VC Occupancy = 1
  Overall Max Buffer Occupancy = 2
latency change    = 0.00863248
throughput change = 0.508089
Class 0:
Packet latency average = 13.4603
	minimum = 11
	maximum = 21
	95th percentile = 18.5
	99th percentile = 19.5
Network latency average = 13.4603
	minimum = 11
	maximum = 21
	95th percentile = 18.5
	99th percentile = 19.5
Slowest packet = 8036
Flit latency average = 13.4601
	minimum = 11
	maximum = 21
	95th percentile = 18.5
	99th percentile = 19.5
Slowest flit = 8036
Fragmentation average = 0
	minimum = 0
	maximum = 0
Injected packet rate average = 0.173759
	minimum = 0 (at node 1)
	maximum = 0.598 (at node 4)
Accepted packet rate average = 0.173648
	minimum = 0 (at node 0)
	maximum = 0.598667 (at node 8)
Injected flit rate average = 0.173759
	minimum = 0 (at node 1)
	maximum = 0.598 (at node 4)
Accepted flit rate average= 0.173648
	minimum = 0 (at node 0)
	maximum = 0.598667 (at node 8)
Injected packet length average = 1
Accepted packet length average = 1
Total in-flight flits = 19 (19 measured)
====== Peak Queue Occupancy Statistics (Absolute Max) ======
  Overall Max VC Occupancy = 1
  Overall Max Buffer Occupancy = 2
latency change    = 0.00798382
throughput change = 0.143009
Class 0:
Packet latency average = 13.8563
	minimum = 11
	maximum = 22
	95th percentile = 18.5
	99th percentile = 19.5
Network latency average = 13.8563
	minimum = 11
	maximum = 22
	95th percentile = 18.5
	99th percentile = 19.5
Slowest packet = 18972
Flit latency average = 13.8558
	minimum = 11
	maximum = 22
	95th percentile = 18.5
	99th percentile = 19.5
Slowest flit = 18972
Fragmentation average = 0
	minimum = 0
	maximum = 0
Injected packet rate average = 0.198099
	minimum = 0 (at node 1)
	maximum = 0.595 (at node 0)
Accepted packet rate average = 0.19779
	minimum = 0 (at node 0)
	maximum = 0.594889 (at node 8)
Injected flit rate average = 0.198099
	minimum = 0 (at node 1)
	maximum = 0.595 (at node 0)
Accepted flit rate average= 0.19779
	minimum = 0 (at node 0)
	maximum = 0.594889 (at node 8)
Injected packet length average = 1
Accepted packet length average = 1
Total in-flight flits = 38 (38 measured)
====== Peak Queue Occupancy Statistics (Absolute Max) ======
  Overall Max VC Occupancy = 1
  Overall Max Buffer Occupancy = 2
latency change    = 0.0285781
throughput change = 0.122059
Class 0:
Packet latency average = 14.253
	minimum = 11
	maximum = 23
	95th percentile = 19.5
	99th percentile = 20.5
Network latency average = 14.253
	minimum = 11
	maximum = 23
	95th percentile = 19.5
	99th percentile = 20.5
Slowest packet = 22762
Flit latency average = 14.2525
	minimum = 11
	maximum = 23
	95th percentile = 19.5
	99th percentile = 20.5
Slowest flit = 22762
Fragmentation average = 0
	minimum = 0
	maximum = 0
Injected packet rate average = 0.224111
	minimum = 0 (at node 1)
	maximum = 0.599333 (at node 0)
Accepted packet rate average = 0.223843
	minimum = 0 (at node 1)
	maximum = 0.599417 (at node 8)
Injected flit rate average = 0.224111
	minimum = 0 (at node 1)
	maximum = 0.599333 (at node 0)
Accepted flit rate average= 0.223843
	minimum = 0 (at node 1)
	maximum = 0.599417 (at node 8)
Injected packet length average = 1
Accepted packet length average = 1
Total in-flight flits = 42 (42 measured)
====== Peak Queue Occupancy Statistics (Absolute Max) ======
  Overall Max VC Occupancy = 1
  Overall Max Buffer Occupancy = 2
latency change    = 0.0278328
throughput change = 0.116387
Class 0:
Packet latency average = 14.5529
	minimum = 11
	maximum = 23
	95th percentile = 19.5
	99th percentile = 20.5
Network latency average = 14.5529
	minimum = 11
	maximum = 23
	95th percentile = 19.5
	99th percentile = 20.5
Slowest packet = 22762
Flit latency average = 14.5524
	minimum = 11
	maximum = 23
	95th percentile = 19.5
	99th percentile = 20.5
Slowest flit = 22762
Fragmentation average = 0
	minimum = 0
	maximum = 0
Injected packet rate average = 0.24997
	minimum = 0 (at node 3)
	maximum = 0.6026 (at node 0)
Accepted packet rate average = 0.249704
	minimum = 0 (at node 1)
	maximum = 0.602133 (at node 4)
Injected flit rate average = 0.24997
	minimum = 0 (at node 3)
	maximum = 0.6026 (at node 0)
Accepted flit rate average= 0.249704
	minimum = 0 (at node 1)
	maximum = 0.602133 (at node 4)
Injected packet length average = 1
Accepted packet length average = 1
Total in-flight flits = 49 (49 measured)
====== Peak Queue Occupancy Statistics (Absolute Max) ======
  Overall Max VC Occupancy = 1
  Overall Max Buffer Occupancy = 2
latency change    = 0.0206122
throughput change = 0.103567
Class 0:
Packet latency average = 14.7502
	minimum = 11
	maximum = 24
	95th percentile = 19.5
	99th percentile = 20.5
Network latency average = 14.7502
	minimum = 11
	maximum = 24
	95th percentile = 19.5
	99th percentile = 20.5
Slowest packet = 38711
Flit latency average = 14.7498
	minimum = 11
	maximum = 24
	95th percentile = 19.5
	99th percentile = 20.5
Slowest flit = 38711
Fragmentation average = 0
	minimum = 0
	maximum = 0
Injected packet rate average = 0.275123
	minimum = 0 (at node 3)
	maximum = 0.601944 (at node 4)
Accepted packet rate average = 0.274895
	minimum = 0 (at node 1)
	maximum = 0.602 (at node 8)
Injected flit rate average = 0.275123
	minimum = 0 (at node 3)
	maximum = 0.601944 (at node 4)
Accepted flit rate average= 0.274895
	minimum = 0 (at node 1)
	maximum = 0.602 (at node 8)
Injected packet length average = 1
Accepted packet length average = 1
Total in-flight flits = 50 (50 measured)
====== Peak Queue Occupancy Statistics (Absolute Max) ======
  Overall Max VC Occupancy = 1
  Overall Max Buffer Occupancy = 2
latency change    = 0.0133774
throughput change = 0.0916399
Class 0:
Packet latency average = 14.8851
	minimum = 11
	maximum = 24
	95th percentile = 19.5
	99th percentile = 21.5
Network latency average = 14.8851
	minimum = 11
	maximum = 24
	95th percentile = 19.5
	99th percentile = 21.5
Slowest packet = 38711
Flit latency average = 14.8847
	minimum = 11
	maximum = 24
	95th percentile = 19.5
	99th percentile = 21.5
Slowest flit = 38711
Fragmentation average = 0
	minimum = 0
	maximum = 0
Injected packet rate average = 0.300275
	minimum = 0 (at node 3)
	maximum = 0.602905 (at node 0)
Accepted packet rate average = 0.299979
	minimum = 0 (at node 1)
	maximum = 0.602667 (at node 4)
Injected flit rate average = 0.300275
	minimum = 0 (at node 3)
	maximum = 0.602905 (at node 0)
Accepted flit rate average= 0.299979
	minimum = 0 (at node 1)
	maximum = 0.602667 (at node 4)
Injected packet length average = 1
Accepted packet length average = 1
Total in-flight flits = 69 (69 measured)
====== Peak Queue Occupancy Statistics (Absolute Max) ======
  Overall Max VC Occupancy = 1
  Overall Max Buffer Occupancy = 3
latency change    = 0.0090571
throughput change = 0.0836185
Class 0:
Packet latency average = 14.9681
	minimum = 11
	maximum = 25
	95th percentile = 20.5
	99th percentile = 21.5
Network latency average = 14.9681
	minimum = 11
	maximum = 25
	95th percentile = 20.5
	99th percentile = 21.5
Slowest packet = 63007
Flit latency average = 14.9678
	minimum = 11
	maximum = 25
	95th percentile = 20.5
	99th percentile = 21.5
Slowest flit = 63007
Fragmentation average = 0
	minimum = 0
	maximum = 0
Injected packet rate average = 0.325477
	minimum = 0 (at node 6)
	maximum = 0.602708 (at node 0)
Accepted packet rate average = 0.325213
	minimum = 0 (at node 2)
	maximum = 0.602542 (at node 4)
Injected flit rate average = 0.325477
	minimum = 0 (at node 6)
	maximum = 0.602708 (at node 0)
Accepted flit rate average= 0.325213
	minimum = 0 (at node 2)
	maximum = 0.602542 (at node 4)
Injected packet length average = 1
Accepted packet length average = 1
Total in-flight flits = 70 (70 measured)
====== Peak Queue Occupancy Statistics (Absolute Max) ======
  Overall Max VC Occupancy = 1
  Overall Max Buffer Occupancy = 3
latency change    = 0.00554615
throughput change = 0.0775926
Class 0:
Packet latency average = 15.0487
	minimum = 11
	maximum = 26
	95th percentile = 20.5
	99th percentile = 21.5
Network latency average = 15.0487
	minimum = 11
	maximum = 26
	95th percentile = 20.5
	99th percentile = 21.5
Slowest packet = 77975
Flit latency average = 15.0484
	minimum = 11
	maximum = 26
	95th percentile = 20.5
	99th percentile = 21.5
Slowest flit = 77975
Fragmentation average = 0
	minimum = 0
	maximum = 0
Injected packet rate average = 0.349811
	minimum = 0.0171111 (at node 6)
	maximum = 0.602519 (at node 0)
Accepted packet rate average = 0.34956
	minimum = 0.0169259 (at node 2)
	maximum = 0.602296 (at node 4)
Injected flit rate average = 0.349811
	minimum = 0.0171111 (at node 6)
	maximum = 0.602519 (at node 0)
Accepted flit rate average= 0.34956
	minimum = 0.0169259 (at node 2)
	maximum = 0.602296 (at node 4)
Injected packet length average = 1
Accepted packet length average = 1
Total in-flight flits = 74 (74 measured)
====== Peak Queue Occupancy Statistics (Absolute Max) ======
  Overall Max VC Occupancy = 1
  Overall Max Buffer Occupancy = 3
latency change    = 0.00535813
throughput change = 0.0696496
Class 0:
Packet latency average = 15.1873
	minimum = 11
	maximum = 26
	95th percentile = 20.5
	99th percentile = 21.5
Network latency average = 15.1873
	minimum = 11
	maximum = 26
	95th percentile = 20.5
	99th percentile = 21.5
Slowest packet = 77975
Flit latency average = 15.1871
	minimum = 11
	maximum = 26
	95th percentile = 20.5
	99th percentile = 21.5
Slowest flit = 77975
Fragmentation average = 0
	minimum = 0
	maximum = 0
Injected packet rate average = 0.374904
	minimum = 0.0757333 (at node 6)
	maximum = 0.603167 (at node 0)
Accepted packet rate average = 0.374619
	minimum = 0.0754333 (at node 2)
	maximum = 0.603067 (at node 4)
Injected flit rate average = 0.374904
	minimum = 0.0757333 (at node 6)
	maximum = 0.603167 (at node 0)
Accepted flit rate average= 0.374619
	minimum = 0.0754333 (at node 2)
	maximum = 0.603067 (at node 4)
Injected packet length average = 1
Accepted packet length average = 1
Total in-flight flits = 90 (90 measured)
====== Peak Queue Occupancy Statistics (Absolute Max) ======
  Overall Max VC Occupancy = 1
  Overall Max Buffer Occupancy = 3
latency change    = 0.00912831
throughput change = 0.0668916
Class 0:
Packet latency average = 15.2908
	minimum = 11
	maximum = 26
	95th percentile = 20.5
	99th percentile = 22.5
Network latency average = 15.2908
	minimum = 11
	maximum = 26
	95th percentile = 20.5
	99th percentile = 22.5
Slowest packet = 77975
Flit latency average = 15.2906
	minimum = 11
	maximum = 26
	95th percentile = 20.5
	99th percentile = 22.5
Slowest flit = 77975
Fragmentation average = 0
	minimum = 0
	maximum = 0
Injected packet rate average = 0.39565
	minimum = 0.123455 (at node 6)
	maximum = 0.603545 (at node 0)
Accepted packet rate average = 0.395407
	minimum = 0.12303 (at node 2)
	maximum = 0.603424 (at node 4)
Injected flit rate average = 0.39565
	minimum = 0.123455 (at node 6)
	maximum = 0.603545 (at node 0)
Accepted flit rate average= 0.395407
	minimum = 0.12303 (at node 2)
	maximum = 0.603424 (at node 4)
Injected packet length average = 1
Accepted packet length average = 1
Total in-flight flits = 85 (85 measured)
====== Peak Queue Occupancy Statistics (Absolute Max) ======
  Overall Max VC Occupancy = 1
  Overall Max Buffer Occupancy = 3
latency change    = 0.00676436
throughput change = 0.0525759
Class 0:
Packet latency average = 15.3647
	minimum = 11
	maximum = 26
	95th percentile = 20.5
	99th percentile = 22.5
Network latency average = 15.3647
	minimum = 11
	maximum = 26
	95th percentile = 20.5
	99th percentile = 22.5
Slowest packet = 77975
Flit latency average = 15.3645
	minimum = 11
	maximum = 26
	95th percentile = 20.5
	99th percentile = 22.5
Slowest flit = 77975
Fragmentation average = 0
	minimum = 0
	maximum = 0
Injected packet rate average = 0.412556
	minimum = 0.163139 (at node 6)
	maximum = 0.602083 (at node 0)
Accepted packet rate average = 0.412373
	minimum = 0.162833 (at node 2)
	maximum = 0.602028 (at node 4)
Injected flit rate average = 0.412556
	minimum = 0.163139 (at node 6)
	maximum = 0.602083 (at node 0)
Accepted flit rate average= 0.412373
	minimum = 0.162833 (at node 2)
	maximum = 0.602028 (at node 4)
Injected packet length average = 1
Accepted packet length average = 1
Total in-flight flits = 72 (72 measured)
====== Peak Queue Occupancy Statistics (Absolute Max) ======
  Overall Max VC Occupancy = 1
  Overall Max Buffer Occupancy = 3
latency change    = 0.00481386
throughput change = 0.0411424
Class 0:
Packet latency average = 15.4286
	minimum = 11
	maximum = 26
	95th percentile = 20.5
	99th percentile = 22.5
Network latency average = 15.4286
	minimum = 11
	maximum = 26
	95th percentile = 20.5
	99th percentile = 22.5
Slowest packet = 77975
Flit latency average = 15.4284
	minimum = 11
	maximum = 26
	95th percentile = 20.5
	99th percentile = 22.5
Slowest flit = 77975
Fragmentation average = 0
	minimum = 0
	maximum = 0
Injected packet rate average = 0.427222
	minimum = 0.196513 (at node 6)
	maximum = 0.602974 (at node 0)
Accepted packet rate average = 0.427026
	minimum = 0.196231 (at node 2)
	maximum = 0.602846 (at node 4)
Injected flit rate average = 0.427222
	minimum = 0.196513 (at node 6)
	maximum = 0.602974 (at node 0)
Accepted flit rate average= 0.427026
	minimum = 0.196231 (at node 2)
	maximum = 0.602846 (at node 4)
Injected packet length average = 1
Accepted packet length average = 1
Total in-flight flits = 82 (82 measured)
====== Peak Queue Occupancy Statistics (Absolute Max) ======
  Overall Max VC Occupancy = 1
  Overall Max Buffer Occupancy = 3
latency change    = 0.00413959
throughput change = 0.0343122
Class 0:
Packet latency average = 15.4767
	minimum = 11
	maximum = 26
	95th percentile = 20.5
	99th percentile = 22.5
Network latency average = 15.4767
	minimum = 11
	maximum = 26
	95th percentile = 20.5
	99th percentile = 22.5
Slowest packet = 77975
Flit latency average = 15.4765
	minimum = 11
	maximum = 26
	95th percentile = 20.5
	99th percentile = 22.5
Slowest flit = 77975
Fragmentation average = 0
	minimum = 0
	maximum = 0
Injected packet rate average = 0.439479
	minimum = 0.224357 (at node 6)
	maximum = 0.603214 (at node 0)
Accepted packet rate average = 0.439283
	minimum = 0.224071 (at node 2)
	maximum = 0.603095 (at node 4)
Injected flit rate average = 0.439479
	minimum = 0.224357 (at node 6)
	maximum = 0.603214 (at node 0)
Accepted flit rate average= 0.439283
	minimum = 0.224071 (at node 2)
	maximum = 0.603095 (at node 4)
Injected packet length average = 1
Accepted packet length average = 1
Total in-flight flits = 87 (87 measured)
====== Peak Queue Occupancy Statistics (Absolute Max) ======
  Overall Max VC Occupancy = 1
  Overall Max Buffer Occupancy = 3
latency change    = 0.00310481
throughput change = 0.0279033
Draining all recorded packets ...
Draining remaining packets ...
Time taken is 48042 cycles
====== Overall Traffic Statistics ======
====== Traffic class 0 ======
Packet latency average = 15.4773 (1 samples)
	minimum = 11 (1 samples)
	maximum = 26 (1 samples)
Network latency average = 15.4773 (1 samples)
	minimum = 11 (1 samples)
	maximum = 26 (1 samples)
Flit latency average = 15.477 (1 samples)
	minimum = 11 (1 samples)
	maximum = 26 (1 samples)
Fragmentation average = 0 (1 samples)
	minimum = 0 (1 samples)
	maximum = 0 (1 samples)
Injected packet rate average = 0.439479 (1 samples)
	minimum = 0.224357 (1 samples)
	maximum = 0.603214 (1 samples)
Accepted packet rate average = 0.439283 (1 samples)
	minimum = 0.224071 (1 samples)
	maximum = 0.603095 (1 samples)
Injected flit rate average = 0.439479 (1 samples)
	minimum = 0.224357 (1 samples)
	maximum = 0.603214 (1 samples)
Accepted flit rate average = 0.439283 (1 samples)
	minimum = 0.224071 (1 samples)
	maximum = 0.603095 (1 samples)
Injected packet size average = 1 (1 samples)
Accepted packet size average = 1 (1 samples)
Hops average = 4.06415 (1 samples)
Total run time 6.18241

