BEGIN Configuration File: D:\noc_huawei\noc\booksim2-noc_speedup_study\booksim2-noc_speedup_study\tests\data\results\fixed_perm_growth_models_perm_4_3_6_1_8_7_2_5_0_peak_0p6_current_defaults\tmp_configs\ordered_fill_racke_tree_s2201.config
num_vcs     = 48;
vc_buf_size = 16;
wait_for_tail_credit = 1;

vc_allocator = islip;
sw_allocator = islip;
alloc_iters  = 16;

credit_delay   = 2;
routing_delay  = 0;
vc_alloc_delay = 1;
sw_alloc_delay = 1;
st_final_delay = 1;

input_speedup     = 1;
output_speedup    = 1;
internal_speedup  = 2.0;

sim_type = latency;
latency_thres  = 100000.0;
sim_count      = 1;
queue_sample_period_cycles = 0;

topology = mesh;
k  = 3;
n  = 2;

hybrid_transition_mode = linear_prob;
hybrid_xy_low_threshold = 0.35;
hybrid_racke_high_threshold = 0.65;
hybrid_buffer_soft_threshold = 0.50;
hybrid_buffer_hard_threshold = 0.85;
hybrid_buffer_release_threshold = 0.35;
hybrid_rate_soft_threshold = 0.55;
hybrid_rate_hard_threshold = 0.90;
hybrid_rate_weight = 0.25;
hybrid_congestion_alpha = 0.25;
hybrid_racke_increase_step = 0.25;
hybrid_racke_decrease_step = 0.10;
hybrid_epoch_cycles = 200;
hybrid_hold_cycles = 600;
hybrid_enable_midflight_override = 1;
hybrid_feedback_delay_per_hop = 1;
hybrid_flow_increase_step = 0.20;
hybrid_flow_decrease_step = 0.08;
hybrid_flow_hard_threshold = 0.95;

packet_size = 1;

scheduled_injection_rates = {0.10,0.20,0.30};
scheduled_phase_cycles = {1000,1000,1000};
scheduled_default_phase_cycles = 1000;

custom_perm_array = {4,3,6,1,8,7,2,5,0};
warmup_periods = 2;
seed = 2201;
hybrid_flow_hotspot_alpha = 0.85;
injection_process = ordered_fill;
perm_seed = 2201;
ordered_injection_phase_cycles = {3000,3000,3000,3000,3000,3000,3000,3000,3000,3000,3000,3000,3000,3000};
routing_function = racke_tree;
injection_rate = 0.6;
max_samples = 22;
ordered_injection_source_order = {4,0,7,2,8,1,5,3,6};
hybrid_flow_hotspot_threshold = 1.1;
ordered_injection_flow_peak_rate = 0.6;
ordered_injection_coefficients = {0.0833333333333333,0.166666666666667,0.25,0.333333333333333,0.416666666666667,0.5,0.583333333333333,0.666666666666667,0.75,0.833333333333333,0.916666666666667,1.0,1.0,1.0};
hybrid_stats_window_cycles = 3000;
traffic = custom_perm;
sample_period = 3000;

END Configuration File: D:\noc_huawei\noc\booksim2-noc_speedup_study\booksim2-noc_speedup_study\tests\data\results\fixed_perm_growth_models_perm_4_3_6_1_8_7_2_5_0_peak_0p6_current_defaults\tmp_configs\ordered_fill_racke_tree_s2201.config
Class 0:
Packet latency average = 13.2587
	minimum = 11
	maximum = 19
	95th percentile = 18.5
	99th percentile = 19.5
Network latency average = 13.2587
	minimum = 11
	maximum = 19
	95th percentile = 18.5
	99th percentile = 19.5
Slowest packet = 43
Flit latency average = 13.2587
	minimum = 11
	maximum = 19
	95th percentile = 18.5
	99th percentile = 19.5
Slowest flit = 43
Fragmentation average = 0
	minimum = 0
	maximum = 0
Injected packet rate average = 0.0502222
	minimum = 0 (at node 0)
	maximum = 0.452 (at node 4)
Accepted packet rate average = 0.049963
	minimum = 0 (at node 0)
	maximum = 0.449667 (at node 8)
Injected flit rate average = 0.0502222
	minimum = 0 (at node 0)
	maximum = 0.452 (at node 4)
Accepted flit rate average= 0.049963
	minimum = 0 (at node 0)
	maximum = 0.449667 (at node 8)
Injected packet length average = 1
Accepted packet length average = 1
Total in-flight flits = 7 (0 measured)
====== Peak Queue Occupancy Statistics (Absolute Max) ======
  Overall Max VC Occupancy = 1
  Overall Max Buffer Occupancy = 2
latency change    = 1
throughput change = 1
Class 0:
Packet latency average = 13.2574
	minimum = 11
	maximum = 19
	95th percentile = 18.5
	99th percentile = 19.5
Network latency average = 13.2574
	minimum = 11
	maximum = 19
	95th percentile = 18.5
	99th percentile = 19.5
Slowest packet = 43
Flit latency average = 13.2574
	minimum = 11
	maximum = 19
	95th percentile = 18.5
	99th percentile = 19.5
Slowest flit = 43
Fragmentation average = 0
	minimum = 0
	maximum = 0
Injected packet rate average = 0.0735926
	minimum = 0 (at node 1)
	maximum = 0.516333 (at node 4)
Accepted packet rate average = 0.0733704
	minimum = 0 (at node 0)
	maximum = 0.515333 (at node 8)
Injected flit rate average = 0.0735926
	minimum = 0 (at node 1)
	maximum = 0.516333 (at node 4)
Accepted flit rate average= 0.0733704
	minimum = 0 (at node 0)
	maximum = 0.515333 (at node 8)
Injected packet length average = 1
Accepted packet length average = 1
Total in-flight flits = 12 (0 measured)
====== Peak Queue Occupancy Statistics (Absolute Max) ======
  Overall Max VC Occupancy = 1
  Overall Max Buffer Occupancy = 2
latency change    = 9.53744e-05
throughput change = 0.319031
Warmed up ...Time used is 6000 cycles
Class 0:
Packet latency average = 13.3497
	minimum = 11
	maximum = 20
	95th percentile = 18.5
	99th percentile = 19.5
Network latency average = 13.3497
	minimum = 11
	maximum = 20
	95th percentile = 18.5
	99th percentile = 19.5
Slowest packet = 5879
Flit latency average = 13.3527
	minimum = 11
	maximum = 20
	95th percentile = 18.5
	99th percentile = 19.5
Slowest flit = 5879
Fragmentation average = 0
	minimum = 0
	maximum = 0
Injected packet rate average = 0.147593
	minimum = 0 (at node 1)
	maximum = 0.597333 (at node 4)
Accepted packet rate average = 0.147222
	minimum = 0 (at node 0)
	maximum = 0.595333 (at node 8)
Injected flit rate average = 0.147593
	minimum = 0 (at node 1)
	maximum = 0.597333 (at node 4)
Accepted flit rate average= 0.147222
	minimum = 0 (at node 0)
	maximum = 0.595333 (at node 8)
Injected packet length average = 1
Accepted packet length average = 1
Total in-flight flits = 22 (22 measured)
====== Peak Queue Occupancy Statistics (Absolute Max) ======
  Overall Max VC Occupancy = 1
  Overall Max Buffer Occupancy = 2
latency change    = 0.00691319
throughput change = 0.501635
Class 0:
Packet latency average = 13.4774
	minimum = 11
	maximum = 21
	95th percentile = 18.5
	99th percentile = 19.5
Network latency average = 13.4774
	minimum = 11
	maximum = 21
	95th percentile = 18.5
	99th percentile = 19.5
Slowest packet = 8290
Flit latency average = 13.4785
	minimum = 11
	maximum = 21
	95th percentile = 18.5
	99th percentile = 19.5
Slowest flit = 8290
Fragmentation average = 0
	minimum = 0
	maximum = 0
Injected packet rate average = 0.173926
	minimum = 0 (at node 1)
	maximum = 0.6055 (at node 4)
Accepted packet rate average = 0.173648
	minimum = 0 (at node 0)
	maximum = 0.604833 (at node 8)
Injected flit rate average = 0.173926
	minimum = 0 (at node 1)
	maximum = 0.6055 (at node 4)
Accepted flit rate average= 0.173648
	minimum = 0 (at node 0)
	maximum = 0.604833 (at node 8)
Injected packet length average = 1
Accepted packet length average = 1
Total in-flight flits = 27 (27 measured)
====== Peak Queue Occupancy Statistics (Absolute Max) ======
  Overall Max VC Occupancy = 1
  Overall Max Buffer Occupancy = 2
latency change    = 0.00947369
throughput change = 0.152181
Class 0:
Packet latency average = 13.859
	minimum = 11
	maximum = 21
	95th percentile = 18.5
	99th percentile = 19.5
Network latency average = 13.859
	minimum = 11
	maximum = 21
	95th percentile = 18.5
	99th percentile = 19.5
Slowest packet = 8290
Flit latency average = 13.8593
	minimum = 11
	maximum = 21
	95th percentile = 18.5
	99th percentile = 19.5
Slowest flit = 8290
Fragmentation average = 0
	minimum = 0
	maximum = 0
Injected packet rate average = 0.199617
	minimum = 0 (at node 1)
	maximum = 0.604778 (at node 4)
Accepted packet rate average = 0.199407
	minimum = 0 (at node 0)
	maximum = 0.604222 (at node 8)
Injected flit rate average = 0.199617
	minimum = 0 (at node 1)
	maximum = 0.604778 (at node 4)
Accepted flit rate average= 0.199407
	minimum = 0 (at node 0)
	maximum = 0.604222 (at node 8)
Injected packet length average = 1
Accepted packet length average = 1
Total in-flight flits = 29 (29 measured)
====== Peak Queue Occupancy Statistics (Absolute Max) ======
  Overall Max VC Occupancy = 1
  Overall Max Buffer Occupancy = 2
latency change    = 0.0275322
throughput change = 0.129179
Class 0:
Packet latency average = 14.2599
	minimum = 11
	maximum = 23
	95th percentile = 19.5
	99th percentile = 20.5
Network latency average = 14.2599
	minimum = 11
	maximum = 23
	95th percentile = 19.5
	99th percentile = 20.5
Slowest packet = 27782
Flit latency average = 14.26
	minimum = 11
	maximum = 23
	95th percentile = 19.5
	99th percentile = 20.5
Slowest flit = 27782
Fragmentation average = 0
	minimum = 0
	maximum = 0
Injected packet rate average = 0.224991
	minimum = 0 (at node 1)
	maximum = 0.60675 (at node 4)
Accepted packet rate average = 0.224713
	minimum = 0 (at node 1)
	maximum = 0.606833 (at node 8)
Injected flit rate average = 0.224991
	minimum = 0 (at node 1)
	maximum = 0.60675 (at node 4)
Accepted flit rate average= 0.224713
	minimum = 0 (at node 1)
	maximum = 0.606833 (at node 8)
Injected packet length average = 1
Accepted packet length average = 1
Total in-flight flits = 42 (42 measured)
====== Peak Queue Occupancy Statistics (Absolute Max) ======
  Overall Max VC Occupancy = 1
  Overall Max Buffer Occupancy = 2
latency change    = 0.0281166
throughput change = 0.112613
Class 0:
Packet latency average = 14.5612
	minimum = 11
	maximum = 23
	95th percentile = 19.5
	99th percentile = 20.5
Network latency average = 14.5612
	minimum = 11
	maximum = 23
	95th percentile = 19.5
	99th percentile = 20.5
Slowest packet = 27782
Flit latency average = 14.5612
	minimum = 11
	maximum = 23
	95th percentile = 19.5
	99th percentile = 20.5
Slowest flit = 27782
Fragmentation average = 0
	minimum = 0
	maximum = 0
Injected packet rate average = 0.249481
	minimum = 0 (at node 3)
	maximum = 0.6056 (at node 4)
Accepted packet rate average = 0.249259
	minimum = 0 (at node 1)
	maximum = 0.605467 (at node 8)
Injected flit rate average = 0.249481
	minimum = 0 (at node 3)
	maximum = 0.6056 (at node 4)
Accepted flit rate average= 0.249259
	minimum = 0 (at node 1)
	maximum = 0.605467 (at node 8)
Injected packet length average = 1
Accepted packet length average = 1
Total in-flight flits = 42 (42 measured)
====== Peak Queue Occupancy Statistics (Absolute Max) ======
  Overall Max VC Occupancy = 1
  Overall Max Buffer Occupancy = 2
latency change    = 0.020693
throughput change = 0.098477
Class 0:
Packet latency average = 14.7545
	minimum = 11
	maximum = 24
	95th percentile = 19.5
	99th percentile = 20.5
Network latency average = 14.7545
	minimum = 11
	maximum = 24
	95th percentile = 19.5
	99th percentile = 20.5
Slowest packet = 45361
Flit latency average = 14.7543
	minimum = 11
	maximum = 24
	95th percentile = 19.5
	99th percentile = 20.5
Slowest flit = 45361
Fragmentation average = 0
	minimum = 0
	maximum = 0
Injected packet rate average = 0.27492
	minimum = 0 (at node 3)
	maximum = 0.605 (at node 4)
Accepted packet rate average = 0.27463
	minimum = 0 (at node 1)
	maximum = 0.604889 (at node 8)
Injected flit rate average = 0.27492
	minimum = 0 (at node 3)
	maximum = 0.605 (at node 4)
Accepted flit rate average= 0.27463
	minimum = 0 (at node 1)
	maximum = 0.604889 (at node 8)
Injected packet length average = 1
Accepted packet length average = 1
Total in-flight flits = 59 (59 measured)
====== Peak Queue Occupancy Statistics (Absolute Max) ======
  Overall Max VC Occupancy = 1
  Overall Max Buffer Occupancy = 2
latency change    = 0.0130959
throughput change = 0.0923803
Class 0:
Packet latency average = 14.8861
	minimum = 11
	maximum = 25
	95th percentile = 19.5
	99th percentile = 21.5
Network latency average = 14.8861
	minimum = 11
	maximum = 25
	95th percentile = 19.5
	99th percentile = 21.5
Slowest packet = 56819
Flit latency average = 14.886
	minimum = 11
	maximum = 25
	95th percentile = 19.5
	99th percentile = 21.5
Slowest flit = 56819
Fragmentation average = 0
	minimum = 0
	maximum = 0
Injected packet rate average = 0.299614
	minimum = 0 (at node 3)
	maximum = 0.604143 (at node 4)
Accepted packet rate average = 0.299344
	minimum = 0 (at node 1)
	maximum = 0.603952 (at node 8)
Injected flit rate average = 0.299614
	minimum = 0 (at node 3)
	maximum = 0.604143 (at node 4)
Accepted flit rate average= 0.299344
	minimum = 0 (at node 1)
	maximum = 0.603952 (at node 8)
Injected packet length average = 1
Accepted packet length average = 1
Total in-flight flits = 63 (63 measured)
====== Peak Queue Occupancy Statistics (Absolute Max) ======
  Overall Max VC Occupancy = 1
  Overall Max Buffer Occupancy = 3
latency change    = 0.00884253
throughput change = 0.0825615
Class 0:
Packet latency average = 14.9765
	minimum = 11
	maximum = 25
	95th percentile = 20.5
	99th percentile = 21.5
Network latency average = 14.9765
	minimum = 11
	maximum = 25
	95th percentile = 20.5
	99th percentile = 21.5
Slowest packet = 56819
Flit latency average = 14.9764
	minimum = 11
	maximum = 25
	95th percentile = 20.5
	99th percentile = 21.5
Slowest flit = 56819
Fragmentation average = 0
	minimum = 0
	maximum = 0
Injected packet rate average = 0.325009
	minimum = 0 (at node 6)
	maximum = 0.602833 (at node 4)
Accepted packet rate average = 0.324741
	minimum = 0 (at node 2)
	maximum = 0.602625 (at node 8)
Injected flit rate average = 0.325009
	minimum = 0 (at node 6)
	maximum = 0.602833 (at node 4)
Accepted flit rate average= 0.324741
	minimum = 0 (at node 2)
	maximum = 0.602625 (at node 8)
Injected packet length average = 1
Accepted packet length average = 1
Total in-flight flits = 70 (70 measured)
====== Peak Queue Occupancy Statistics (Absolute Max) ======
  Overall Max VC Occupancy = 1
  Overall Max Buffer Occupancy = 3
latency change    = 0.00603665
throughput change = 0.0782065
Class 0:
Packet latency average = 15.058
	minimum = 11
	maximum = 26
	95th percentile = 20.5
	99th percentile = 21.5
Network latency average = 15.058
	minimum = 11
	maximum = 26
	95th percentile = 20.5
	99th percentile = 21.5
Slowest packet = 79022
Flit latency average = 15.0579
	minimum = 11
	maximum = 26
	95th percentile = 20.5
	99th percentile = 21.5
Slowest flit = 79022
Fragmentation average = 0
	minimum = 0
	maximum = 0
Injected packet rate average = 0.349897
	minimum = 0.0157407 (at node 6)
	maximum = 0.601444 (at node 4)
Accepted packet rate average = 0.349617
	minimum = 0.0155926 (at node 2)
	maximum = 0.601333 (at node 8)
Injected flit rate average = 0.349897
	minimum = 0.0157407 (at node 6)
	maximum = 0.601444 (at node 4)
Accepted flit rate average= 0.349617
	minimum = 0.0155926 (at node 2)
	maximum = 0.601333 (at node 8)
Injected packet length average = 1
Accepted packet length average = 1
Total in-flight flits = 80 (80 measured)
====== Peak Queue Occupancy Statistics (Absolute Max) ======
  Overall Max VC Occupancy = 1
  Overall Max Buffer Occupancy = 3
latency change    = 0.00541557
throughput change = 0.0711536
Class 0:
Packet latency average = 15.1957
	minimum = 11
	maximum = 26
	95th percentile = 20.5
	99th percentile = 21.5
Network latency average = 15.1957
	minimum = 11
	maximum = 26
	95th percentile = 20.5
	99th percentile = 21.5
Slowest packet = 79022
Flit latency average = 15.1956
	minimum = 11
	maximum = 26
	95th percentile = 20.5
	99th percentile = 21.5
Slowest flit = 79022
Fragmentation average = 0
	minimum = 0
	maximum = 0
Injected packet rate average = 0.374704
	minimum = 0.0747 (at node 6)
	maximum = 0.600267 (at node 4)
Accepted packet rate average = 0.374433
	minimum = 0.0743 (at node 2)
	maximum = 0.600133 (at node 8)
Injected flit rate average = 0.374704
	minimum = 0.0747 (at node 6)
	maximum = 0.600267 (at node 4)
Accepted flit rate average= 0.374433
	minimum = 0.0743 (at node 2)
	maximum = 0.600133 (at node 8)
Injected packet length average = 1
Accepted packet length average = 1
Total in-flight flits = 85 (85 measured)
====== Peak Queue Occupancy Statistics (Absolute Max) ======
  Overall Max VC Occupancy = 1
  Overall Max Buffer Occupancy = 3
latency change    = 0.0090596
throughput change = 0.0662763
Class 0:
Packet latency average = 15.2909
	minimum = 11
	maximum = 26
	95th percentile = 20.5
	99th percentile = 22.5
Network latency average = 15.2909
	minimum = 11
	maximum = 26
	95th percentile = 20.5
	99th percentile = 22.5
Slowest packet = 79022
Flit latency average = 15.2908
	minimum = 11
	maximum = 26
	95th percentile = 20.5
	99th percentile = 22.5
Slowest flit = 79022
Fragmentation average = 0
	minimum = 0
	maximum = 0
Injected packet rate average = 0.395128
	minimum = 0.121788 (at node 6)
	maximum = 0.600788 (at node 4)
Accepted packet rate average = 0.394872
	minimum = 0.121455 (at node 2)
	maximum = 0.600667 (at node 8)
Injected flit rate average = 0.395128
	minimum = 0.121788 (at node 6)
	maximum = 0.600788 (at node 4)
Accepted flit rate average= 0.394872
	minimum = 0.121455 (at node 2)
	maximum = 0.600667 (at node 8)
Injected packet length average = 1
Accepted packet length average = 1
Total in-flight flits = 88 (88 measured)
====== Peak Queue Occupancy Statistics (Absolute Max) ======
  Overall Max VC Occupancy = 1
  Overall Max Buffer Occupancy = 3
latency change    = 0.00622463
throughput change = 0.0517604
Class 0:
Packet latency average = 15.3667
	minimum = 11
	maximum = 26
	95th percentile = 20.5
	99th percentile = 22.5
Network latency average = 15.3667
	minimum = 11
	maximum = 26
	95th percentile = 20.5
	99th percentile = 22.5
Slowest packet = 79022
Flit latency average = 15.3666
	minimum = 11
	maximum = 26
	95th percentile = 20.5
	99th percentile = 22.5
Slowest flit = 79022
Fragmentation average = 0
	minimum = 0
	maximum = 0
Injected packet rate average = 0.412114
	minimum = 0.1615 (at node 6)
	maximum = 0.600972 (at node 4)
Accepted packet rate average = 0.411877
	minimum = 0.161167 (at node 2)
	maximum = 0.600889 (at node 8)
Injected flit rate average = 0.412114
	minimum = 0.1615 (at node 6)
	maximum = 0.600972 (at node 4)
Accepted flit rate average= 0.411877
	minimum = 0.161167 (at node 2)
	maximum = 0.600889 (at node 8)
Injected packet length average = 1
Accepted packet length average = 1
Total in-flight flits = 89 (89 measured)
====== Peak Queue Occupancy Statistics (Absolute Max) ======
  Overall Max VC Occupancy = 1
  Overall Max Buffer Occupancy = 3
latency change    = 0.00493248
throughput change = 0.0412854
Class 0:
Packet latency average = 15.4265
	minimum = 11
	maximum = 26
	95th percentile = 20.5
	99th percentile = 22.5
Network latency average = 15.4265
	minimum = 11
	maximum = 26
	95th percentile = 20.5
	99th percentile = 22.5
Slowest packet = 79022
Flit latency average = 15.4264
	minimum = 11
	maximum = 26
	95th percentile = 20.5
	99th percentile = 22.5
Slowest flit = 79022
Fragmentation average = 0
	minimum = 0
	maximum = 0
Injected packet rate average = 0.426761
	minimum = 0.195256 (at node 6)
	maximum = 0.601154 (at node 4)
Accepted packet rate average = 0.426541
	minimum = 0.195 (at node 2)
	maximum = 0.601051 (at node 8)
Injected flit rate average = 0.426761
	minimum = 0.195256 (at node 6)
	maximum = 0.601154 (at node 4)
Accepted flit rate average= 0.426541
	minimum = 0.195 (at node 2)
	maximum = 0.601051 (at node 8)
Injected packet length average = 1
Accepted packet length average = 1
Total in-flight flits = 89 (89 measured)
====== Peak Queue Occupancy Statistics (Absolute Max) ======
  Overall Max VC Occupancy = 1
  Overall Max Buffer Occupancy = 3
latency change    = 0.00387789
throughput change = 0.0343806
Class 0:
Packet latency average = 15.4739
	minimum = 11
	maximum = 26
	95th percentile = 20.5
	99th percentile = 22.5
Network latency average = 15.4739
	minimum = 11
	maximum = 26
	95th percentile = 20.5
	99th percentile = 22.5
Slowest packet = 79022
Flit latency average = 15.4738
	minimum = 11
	maximum = 26
	95th percentile = 20.5
	99th percentile = 22.5
Slowest flit = 79022
Fragmentation average = 0
	minimum = 0
	maximum = 0
Injected packet rate average = 0.438799
	minimum = 0.224095 (at node 6)
	maximum = 0.601619 (at node 4)
Accepted packet rate average = 0.438595
	minimum = 0.223786 (at node 2)
	maximum = 0.601548 (at node 8)
Injected flit rate average = 0.438799
	minimum = 0.224095 (at node 6)
	maximum = 0.601619 (at node 4)
Accepted flit rate average= 0.438595
	minimum = 0.223786 (at node 2)
	maximum = 0.601548 (at node 8)
Injected packet length average = 1
Accepted packet length average = 1
Total in-flight flits = 89 (89 measured)
====== Peak Queue Occupancy Statistics (Absolute Max) ======
  Overall Max VC Occupancy = 1
  Overall Max Buffer Occupancy = 3
latency change    = 0.00306042
throughput change = 0.027483
Draining all recorded packets ...
Draining remaining packets ...
Time taken is 48044 cycles
====== Overall Traffic Statistics ======
====== Traffic class 0 ======
Packet latency average = 15.4745 (1 samples)
	minimum = 11 (1 samples)
	maximum = 26 (1 samples)
Network latency average = 15.4745 (1 samples)
	minimum = 11 (1 samples)
	maximum = 26 (1 samples)
Flit latency average = 15.4749 (1 samples)
	minimum = 11 (1 samples)
	maximum = 26 (1 samples)
Fragmentation average = 0 (1 samples)
	minimum = 0 (1 samples)
	maximum = 0 (1 samples)
Injected packet rate average = 0.438799 (1 samples)
	minimum = 0.224095 (1 samples)
	maximum = 0.601619 (1 samples)
Accepted packet rate average = 0.438595 (1 samples)
	minimum = 0.223786 (1 samples)
	maximum = 0.601548 (1 samples)
Injected flit rate average = 0.438799 (1 samples)
	minimum = 0.224095 (1 samples)
	maximum = 0.601619 (1 samples)
Accepted flit rate average = 0.438595 (1 samples)
	minimum = 0.223786 (1 samples)
	maximum = 0.601548 (1 samples)
Injected packet size average = 1 (1 samples)
Accepted packet size average = 1 (1 samples)
Hops average = 4.06457 (1 samples)
Total run time 6.45807

