BEGIN Configuration File: D:\noc_huawei\noc\booksim2-noc_speedup_study\booksim2-noc_speedup_study\tests\data\results\fixed_perm_growth_models_perm_4_3_6_1_8_7_2_5_0_peak_0p6_current_defaults\tmp_configs\ordered_fill_racke_tree_s2204.config
num_vcs     = 48;
vc_buf_size = 16;
wait_for_tail_credit = 1;

vc_allocator = islip;
sw_allocator = islip;
alloc_iters  = 16;

credit_delay   = 2;
routing_delay  = 0;
vc_alloc_delay = 1;
sw_alloc_delay = 1;
st_final_delay = 1;

input_speedup     = 1;
output_speedup    = 1;
internal_speedup  = 2.0;

sim_type = latency;
latency_thres  = 100000.0;
sim_count      = 1;
queue_sample_period_cycles = 0;

topology = mesh;
k  = 3;
n  = 2;

hybrid_transition_mode = linear_prob;
hybrid_xy_low_threshold = 0.35;
hybrid_racke_high_threshold = 0.65;
hybrid_buffer_soft_threshold = 0.50;
hybrid_buffer_hard_threshold = 0.85;
hybrid_buffer_release_threshold = 0.35;
hybrid_rate_soft_threshold = 0.55;
hybrid_rate_hard_threshold = 0.90;
hybrid_rate_weight = 0.25;
hybrid_congestion_alpha = 0.25;
hybrid_racke_increase_step = 0.25;
hybrid_racke_decrease_step = 0.10;
hybrid_epoch_cycles = 200;
hybrid_hold_cycles = 600;
hybrid_enable_midflight_override = 1;
hybrid_feedback_delay_per_hop = 1;
hybrid_flow_increase_step = 0.20;
hybrid_flow_decrease_step = 0.08;
hybrid_flow_hard_threshold = 0.95;

packet_size = 1;

scheduled_injection_rates = {0.10,0.20,0.30};
scheduled_phase_cycles = {1000,1000,1000};
scheduled_default_phase_cycles = 1000;

custom_perm_array = {4,3,6,1,8,7,2,5,0};
warmup_periods = 2;
seed = 2204;
hybrid_flow_hotspot_alpha = 0.85;
injection_process = ordered_fill;
perm_seed = 2204;
ordered_injection_phase_cycles = {3000,3000,3000,3000,3000,3000,3000,3000,3000,3000,3000,3000,3000,3000};
routing_function = racke_tree;
injection_rate = 0.6;
max_samples = 22;
ordered_injection_source_order = {4,0,7,2,8,1,5,3,6};
hybrid_flow_hotspot_threshold = 1.1;
ordered_injection_flow_peak_rate = 0.6;
ordered_injection_coefficients = {0.0833333333333333,0.166666666666667,0.25,0.333333333333333,0.416666666666667,0.5,0.583333333333333,0.666666666666667,0.75,0.833333333333333,0.916666666666667,1.0,1.0,1.0};
hybrid_stats_window_cycles = 3000;
traffic = custom_perm;
sample_period = 3000;

END Configuration File: D:\noc_huawei\noc\booksim2-noc_speedup_study\booksim2-noc_speedup_study\tests\data\results\fixed_perm_growth_models_perm_4_3_6_1_8_7_2_5_0_peak_0p6_current_defaults\tmp_configs\ordered_fill_racke_tree_s2204.config
Class 0:
Packet latency average = 13.2459
	minimum = 11
	maximum = 19
	95th percentile = 18.5
	99th percentile = 18.5
Network latency average = 13.2459
	minimum = 11
	maximum = 19
	95th percentile = 18.5
	99th percentile = 18.5
Slowest packet = 73
Flit latency average = 13.2459
	minimum = 11
	maximum = 19
	95th percentile = 18.5
	99th percentile = 18.5
Slowest flit = 73
Fragmentation average = 0
	minimum = 0
	maximum = 0
Injected packet rate average = 0.0502593
	minimum = 0 (at node 0)
	maximum = 0.452333 (at node 4)
Accepted packet rate average = 0.05
	minimum = 0 (at node 0)
	maximum = 0.45 (at node 8)
Injected flit rate average = 0.0502593
	minimum = 0 (at node 0)
	maximum = 0.452333 (at node 4)
Accepted flit rate average= 0.05
	minimum = 0 (at node 0)
	maximum = 0.45 (at node 8)
Injected packet length average = 1
Accepted packet length average = 1
Total in-flight flits = 7 (0 measured)
====== Peak Queue Occupancy Statistics (Absolute Max) ======
  Overall Max VC Occupancy = 1
  Overall Max Buffer Occupancy = 2
latency change    = 1
throughput change = 1
Class 0:
Packet latency average = 13.2597
	minimum = 11
	maximum = 19
	95th percentile = 18.5
	99th percentile = 19.5
Network latency average = 13.2597
	minimum = 11
	maximum = 19
	95th percentile = 18.5
	99th percentile = 19.5
Slowest packet = 73
Flit latency average = 13.2597
	minimum = 11
	maximum = 19
	95th percentile = 18.5
	99th percentile = 19.5
Slowest flit = 73
Fragmentation average = 0
	minimum = 0
	maximum = 0
Injected packet rate average = 0.0757037
	minimum = 0 (at node 1)
	maximum = 0.522833 (at node 4)
Accepted packet rate average = 0.0755185
	minimum = 0 (at node 0)
	maximum = 0.521667 (at node 8)
Injected flit rate average = 0.0757037
	minimum = 0 (at node 1)
	maximum = 0.522833 (at node 4)
Accepted flit rate average= 0.0755185
	minimum = 0 (at node 0)
	maximum = 0.521667 (at node 8)
Injected packet length average = 1
Accepted packet length average = 1
Total in-flight flits = 10 (0 measured)
====== Peak Queue Occupancy Statistics (Absolute Max) ======
  Overall Max VC Occupancy = 1
  Overall Max Buffer Occupancy = 2
latency change    = 0.00103775
throughput change = 0.337911
Warmed up ...Time used is 6000 cycles
Class 0:
Packet latency average = 13.3653
	minimum = 11
	maximum = 20
	95th percentile = 18.5
	99th percentile = 19.5
Network latency average = 13.3653
	minimum = 11
	maximum = 20
	95th percentile = 18.5
	99th percentile = 19.5
Slowest packet = 5392
Flit latency average = 13.3681
	minimum = 11
	maximum = 20
	95th percentile = 18.5
	99th percentile = 19.5
Slowest flit = 5392
Fragmentation average = 0
	minimum = 0
	maximum = 0
Injected packet rate average = 0.150963
	minimum = 0 (at node 1)
	maximum = 0.605667 (at node 4)
Accepted packet rate average = 0.15063
	minimum = 0 (at node 0)
	maximum = 0.605333 (at node 8)
Injected flit rate average = 0.150963
	minimum = 0 (at node 1)
	maximum = 0.605667 (at node 4)
Accepted flit rate average= 0.15063
	minimum = 0 (at node 0)
	maximum = 0.605333 (at node 8)
Injected packet length average = 1
Accepted packet length average = 1
Total in-flight flits = 19 (19 measured)
====== Peak Queue Occupancy Statistics (Absolute Max) ======
  Overall Max VC Occupancy = 1
  Overall Max Buffer Occupancy = 2
latency change    = 0.00790169
throughput change = 0.498648
Class 0:
Packet latency average = 13.4574
	minimum = 11
	maximum = 22
	95th percentile = 18.5
	99th percentile = 19.5
Network latency average = 13.4574
	minimum = 11
	maximum = 22
	95th percentile = 18.5
	99th percentile = 19.5
Slowest packet = 9399
Flit latency average = 13.4586
	minimum = 11
	maximum = 22
	95th percentile = 18.5
	99th percentile = 19.5
Slowest flit = 9399
Fragmentation average = 0
	minimum = 0
	maximum = 0
Injected packet rate average = 0.174019
	minimum = 0 (at node 1)
	maximum = 0.597167 (at node 0)
Accepted packet rate average = 0.173815
	minimum = 0 (at node 0)
	maximum = 0.597 (at node 4)
Injected flit rate average = 0.174019
	minimum = 0 (at node 1)
	maximum = 0.597167 (at node 0)
Accepted flit rate average= 0.173815
	minimum = 0 (at node 0)
	maximum = 0.597 (at node 4)
Injected packet length average = 1
Accepted packet length average = 1
Total in-flight flits = 21 (21 measured)
====== Peak Queue Occupancy Statistics (Absolute Max) ======
  Overall Max VC Occupancy = 1
  Overall Max Buffer Occupancy = 2
latency change    = 0.00684751
throughput change = 0.13339
Class 0:
Packet latency average = 13.8704
	minimum = 11
	maximum = 22
	95th percentile = 18.5
	99th percentile = 19.5
Network latency average = 13.8704
	minimum = 11
	maximum = 22
	95th percentile = 18.5
	99th percentile = 19.5
Slowest packet = 9399
Flit latency average = 13.8708
	minimum = 11
	maximum = 22
	95th percentile = 18.5
	99th percentile = 19.5
Slowest flit = 9399
Fragmentation average = 0
	minimum = 0
	maximum = 0
Injected packet rate average = 0.198383
	minimum = 0 (at node 1)
	maximum = 0.595444 (at node 0)
Accepted packet rate average = 0.198123
	minimum = 0 (at node 0)
	maximum = 0.594667 (at node 4)
Injected flit rate average = 0.198383
	minimum = 0 (at node 1)
	maximum = 0.595444 (at node 0)
Accepted flit rate average= 0.198123
	minimum = 0 (at node 0)
	maximum = 0.594667 (at node 4)
Injected packet length average = 1
Accepted packet length average = 1
Total in-flight flits = 31 (31 measured)
====== Peak Queue Occupancy Statistics (Absolute Max) ======
  Overall Max VC Occupancy = 1
  Overall Max Buffer Occupancy = 2
latency change    = 0.0297704
throughput change = 0.122694
Class 0:
Packet latency average = 14.262
	minimum = 11
	maximum = 23
	95th percentile = 19.5
	99th percentile = 20.5
Network latency average = 14.262
	minimum = 11
	maximum = 23
	95th percentile = 19.5
	99th percentile = 20.5
Slowest packet = 24596
Flit latency average = 14.2621
	minimum = 11
	maximum = 23
	95th percentile = 19.5
	99th percentile = 20.5
Slowest flit = 24596
Fragmentation average = 0
	minimum = 0
	maximum = 0
Injected packet rate average = 0.224148
	minimum = 0 (at node 1)
	maximum = 0.598333 (at node 4)
Accepted packet rate average = 0.223796
	minimum = 0 (at node 1)
	maximum = 0.598167 (at node 8)
Injected flit rate average = 0.224148
	minimum = 0 (at node 1)
	maximum = 0.598333 (at node 4)
Accepted flit rate average= 0.223796
	minimum = 0 (at node 1)
	maximum = 0.598167 (at node 8)
Injected packet length average = 1
Accepted packet length average = 1
Total in-flight flits = 48 (48 measured)
====== Peak Queue Occupancy Statistics (Absolute Max) ======
  Overall Max VC Occupancy = 1
  Overall Max Buffer Occupancy = 2
latency change    = 0.0274571
throughput change = 0.114715
Class 0:
Packet latency average = 14.5462
	minimum = 11
	maximum = 23
	95th percentile = 19.5
	99th percentile = 20.5
Network latency average = 14.5462
	minimum = 11
	maximum = 23
	95th percentile = 19.5
	99th percentile = 20.5
Slowest packet = 24596
Flit latency average = 14.5462
	minimum = 11
	maximum = 23
	95th percentile = 19.5
	99th percentile = 20.5
Slowest flit = 24596
Fragmentation average = 0
	minimum = 0
	maximum = 0
Injected packet rate average = 0.248437
	minimum = 0 (at node 3)
	maximum = 0.597933 (at node 4)
Accepted packet rate average = 0.248207
	minimum = 0 (at node 1)
	maximum = 0.598067 (at node 8)
Injected flit rate average = 0.248437
	minimum = 0 (at node 3)
	maximum = 0.597933 (at node 4)
Accepted flit rate average= 0.248207
	minimum = 0 (at node 1)
	maximum = 0.598067 (at node 8)
Injected packet length average = 1
Accepted packet length average = 1
Total in-flight flits = 41 (41 measured)
====== Peak Queue Occupancy Statistics (Absolute Max) ======
  Overall Max VC Occupancy = 1
  Overall Max Buffer Occupancy = 2
latency change    = 0.0195391
throughput change = 0.0983496
Class 0:
Packet latency average = 14.7383
	minimum = 11
	maximum = 23
	95th percentile = 19.5
	99th percentile = 20.5
Network latency average = 14.7383
	minimum = 11
	maximum = 23
	95th percentile = 19.5
	99th percentile = 20.5
Slowest packet = 24596
Flit latency average = 14.7382
	minimum = 11
	maximum = 23
	95th percentile = 19.5
	99th percentile = 20.5
Slowest flit = 24596
Fragmentation average = 0
	minimum = 0
	maximum = 0
Injected packet rate average = 0.273981
	minimum = 0 (at node 3)
	maximum = 0.600167 (at node 4)
Accepted packet rate average = 0.273679
	minimum = 0 (at node 1)
	maximum = 0.6 (at node 8)
Injected flit rate average = 0.273981
	minimum = 0 (at node 3)
	maximum = 0.600167 (at node 4)
Accepted flit rate average= 0.273679
	minimum = 0 (at node 1)
	maximum = 0.6 (at node 8)
Injected packet length average = 1
Accepted packet length average = 1
Total in-flight flits = 59 (59 measured)
====== Peak Queue Occupancy Statistics (Absolute Max) ======
  Overall Max VC Occupancy = 1
  Overall Max Buffer Occupancy = 3
latency change    = 0.0130355
throughput change = 0.0930711
Class 0:
Packet latency average = 14.8734
	minimum = 11
	maximum = 24
	95th percentile = 19.5
	99th percentile = 21.5
Network latency average = 14.8734
	minimum = 11
	maximum = 24
	95th percentile = 19.5
	99th percentile = 21.5
Slowest packet = 50717
Flit latency average = 14.8733
	minimum = 11
	maximum = 24
	95th percentile = 19.5
	99th percentile = 21.5
Slowest flit = 50717
Fragmentation average = 0
	minimum = 0
	maximum = 0
Injected packet rate average = 0.299481
	minimum = 0 (at node 3)
	maximum = 0.598238 (at node 4)
Accepted packet rate average = 0.299212
	minimum = 0 (at node 1)
	maximum = 0.598048 (at node 8)
Injected flit rate average = 0.299481
	minimum = 0 (at node 3)
	maximum = 0.598238 (at node 4)
Accepted flit rate average= 0.299212
	minimum = 0 (at node 1)
	maximum = 0.598048 (at node 8)
Injected packet length average = 1
Accepted packet length average = 1
Total in-flight flits = 61 (61 measured)
====== Peak Queue Occupancy Statistics (Absolute Max) ======
  Overall Max VC Occupancy = 1
  Overall Max Buffer Occupancy = 3
latency change    = 0.00908091
throughput change = 0.085333
Class 0:
Packet latency average = 14.9625
	minimum = 11
	maximum = 25
	95th percentile = 20.5
	99th percentile = 21.5
Network latency average = 14.9625
	minimum = 11
	maximum = 25
	95th percentile = 20.5
	99th percentile = 21.5
Slowest packet = 63362
Flit latency average = 14.9625
	minimum = 11
	maximum = 25
	95th percentile = 20.5
	99th percentile = 21.5
Slowest flit = 63362
Fragmentation average = 0
	minimum = 0
	maximum = 0
Injected packet rate average = 0.324611
	minimum = 0 (at node 6)
	maximum = 0.59825 (at node 4)
Accepted packet rate average = 0.324333
	minimum = 0 (at node 2)
	maximum = 0.598125 (at node 8)
Injected flit rate average = 0.324611
	minimum = 0 (at node 6)
	maximum = 0.59825 (at node 4)
Accepted flit rate average= 0.324333
	minimum = 0 (at node 2)
	maximum = 0.598125 (at node 8)
Injected packet length average = 1
Accepted packet length average = 1
Total in-flight flits = 70 (70 measured)
====== Peak Queue Occupancy Statistics (Absolute Max) ======
  Overall Max VC Occupancy = 1
  Overall Max Buffer Occupancy = 3
latency change    = 0.00595973
throughput change = 0.0774564
Class 0:
Packet latency average = 15.0466
	minimum = 11
	maximum = 25
	95th percentile = 20.5
	99th percentile = 21.5
Network latency average = 15.0466
	minimum = 11
	maximum = 25
	95th percentile = 20.5
	99th percentile = 21.5
Slowest packet = 63362
Flit latency average = 15.0465
	minimum = 11
	maximum = 25
	95th percentile = 20.5
	99th percentile = 21.5
Slowest flit = 63362
Fragmentation average = 0
	minimum = 0
	maximum = 0
Injected packet rate average = 0.349321
	minimum = 0.0164815 (at node 6)
	maximum = 0.597926 (at node 0)
Accepted packet rate average = 0.349041
	minimum = 0.0163704 (at node 2)
	maximum = 0.597778 (at node 4)
Injected flit rate average = 0.349321
	minimum = 0.0164815 (at node 6)
	maximum = 0.597926 (at node 0)
Accepted flit rate average= 0.349041
	minimum = 0.0163704 (at node 2)
	maximum = 0.597778 (at node 4)
Injected packet length average = 1
Accepted packet length average = 1
Total in-flight flits = 78 (78 measured)
====== Peak Queue Occupancy Statistics (Absolute Max) ======
  Overall Max VC Occupancy = 1
  Overall Max Buffer Occupancy = 3
latency change    = 0.00558437
throughput change = 0.0707877
Class 0:
Packet latency average = 15.1833
	minimum = 11
	maximum = 26
	95th percentile = 20.5
	99th percentile = 21.5
Network latency average = 15.1833
	minimum = 11
	maximum = 26
	95th percentile = 20.5
	99th percentile = 21.5
Slowest packet = 91837
Flit latency average = 15.1833
	minimum = 11
	maximum = 26
	95th percentile = 20.5
	99th percentile = 21.5
Slowest flit = 91837
Fragmentation average = 0
	minimum = 0
	maximum = 0
Injected packet rate average = 0.374496
	minimum = 0.0742 (at node 6)
	maximum = 0.5986 (at node 0)
Accepted packet rate average = 0.374207
	minimum = 0.0738667 (at node 2)
	maximum = 0.598367 (at node 4)
Injected flit rate average = 0.374496
	minimum = 0.0742 (at node 6)
	maximum = 0.5986 (at node 0)
Accepted flit rate average= 0.374207
	minimum = 0.0738667 (at node 2)
	maximum = 0.598367 (at node 4)
Injected packet length average = 1
Accepted packet length average = 1
Total in-flight flits = 88 (88 measured)
====== Peak Queue Occupancy Statistics (Absolute Max) ======
  Overall Max VC Occupancy = 1
  Overall Max Buffer Occupancy = 3
latency change    = 0.0090069
throughput change = 0.0672522
Class 0:
Packet latency average = 15.2924
	minimum = 11
	maximum = 26
	95th percentile = 20.5
	99th percentile = 22.5
Network latency average = 15.2924
	minimum = 11
	maximum = 26
	95th percentile = 20.5
	99th percentile = 22.5
Slowest packet = 91837
Flit latency average = 15.2923
	minimum = 11
	maximum = 26
	95th percentile = 20.5
	99th percentile = 22.5
Slowest flit = 91837
Fragmentation average = 0
	minimum = 0
	maximum = 0
Injected packet rate average = 0.39529
	minimum = 0.122909 (at node 6)
	maximum = 0.598848 (at node 0)
Accepted packet rate average = 0.395081
	minimum = 0.122576 (at node 2)
	maximum = 0.598818 (at node 8)
Injected flit rate average = 0.39529
	minimum = 0.122909 (at node 6)
	maximum = 0.598848 (at node 0)
Accepted flit rate average= 0.395081
	minimum = 0.122576 (at node 2)
	maximum = 0.598818 (at node 8)
Injected packet length average = 1
Accepted packet length average = 1
Total in-flight flits = 72 (72 measured)
====== Peak Queue Occupancy Statistics (Absolute Max) ======
  Overall Max VC Occupancy = 1
  Overall Max Buffer Occupancy = 3
latency change    = 0.0071319
throughput change = 0.0528332
Class 0:
Packet latency average = 15.3704
	minimum = 11
	maximum = 26
	95th percentile = 20.5
	99th percentile = 22.5
Network latency average = 15.3704
	minimum = 11
	maximum = 26
	95th percentile = 20.5
	99th percentile = 22.5
Slowest packet = 91837
Flit latency average = 15.3703
	minimum = 11
	maximum = 26
	95th percentile = 20.5
	99th percentile = 22.5
Slowest flit = 91837
Fragmentation average = 0
	minimum = 0
	maximum = 0
Injected packet rate average = 0.412552
	minimum = 0.162889 (at node 6)
	maximum = 0.599778 (at node 0)
Accepted packet rate average = 0.412318
	minimum = 0.162444 (at node 2)
	maximum = 0.599667 (at node 8)
Injected flit rate average = 0.412552
	minimum = 0.162889 (at node 6)
	maximum = 0.599778 (at node 0)
Accepted flit rate average= 0.412318
	minimum = 0.162444 (at node 2)
	maximum = 0.599667 (at node 8)
Injected packet length average = 1
Accepted packet length average = 1
Total in-flight flits = 86 (86 measured)
====== Peak Queue Occupancy Statistics (Absolute Max) ======
  Overall Max VC Occupancy = 1
  Overall Max Buffer Occupancy = 3
latency change    = 0.00507512
throughput change = 0.0418053
Class 0:
Packet latency average = 15.4313
	minimum = 11
	maximum = 26
	95th percentile = 20.5
	99th percentile = 22.5
Network latency average = 15.4313
	minimum = 11
	maximum = 26
	95th percentile = 20.5
	99th percentile = 22.5
Slowest packet = 91837
Flit latency average = 15.4312
	minimum = 11
	maximum = 26
	95th percentile = 20.5
	99th percentile = 22.5
Slowest flit = 91837
Fragmentation average = 0
	minimum = 0
	maximum = 0
Injected packet rate average = 0.426983
	minimum = 0.196513 (at node 6)
	maximum = 0.599436 (at node 0)
Accepted packet rate average = 0.426752
	minimum = 0.196179 (at node 2)
	maximum = 0.599436 (at node 8)
Injected flit rate average = 0.426983
	minimum = 0.196513 (at node 6)
	maximum = 0.599436 (at node 0)
Accepted flit rate average= 0.426752
	minimum = 0.196179 (at node 2)
	maximum = 0.599436 (at node 8)
Injected packet length average = 1
Accepted packet length average = 1
Total in-flight flits = 91 (91 measured)
====== Peak Queue Occupancy Statistics (Absolute Max) ======
  Overall Max VC Occupancy = 1
  Overall Max Buffer Occupancy = 3
latency change    = 0.00394629
throughput change = 0.0338235
Class 0:
Packet latency average = 15.4802
	minimum = 11
	maximum = 26
	95th percentile = 20.5
	99th percentile = 22.5
Network latency average = 15.4802
	minimum = 11
	maximum = 26
	95th percentile = 20.5
	99th percentile = 22.5
Slowest packet = 91837
Flit latency average = 15.4801
	minimum = 11
	maximum = 26
	95th percentile = 20.5
	99th percentile = 22.5
Slowest flit = 91837
Fragmentation average = 0
	minimum = 0
	maximum = 0
Injected packet rate average = 0.439188
	minimum = 0.224476 (at node 6)
	maximum = 0.600095 (at node 0)
Accepted packet rate average = 0.438981
	minimum = 0.22419 (at node 2)
	maximum = 0.599976 (at node 4)
Injected flit rate average = 0.439188
	minimum = 0.224476 (at node 6)
	maximum = 0.600095 (at node 0)
Accepted flit rate average= 0.438981
	minimum = 0.22419 (at node 2)
	maximum = 0.599976 (at node 4)
Injected packet length average = 1
Accepted packet length average = 1
Total in-flight flits = 88 (88 measured)
====== Peak Queue Occupancy Statistics (Absolute Max) ======
  Overall Max VC Occupancy = 1
  Overall Max Buffer Occupancy = 3
latency change    = 0.0031601
throughput change = 0.0278585
Draining all recorded packets ...
Draining remaining packets ...
Time taken is 48045 cycles
====== Overall Traffic Statistics ======
====== Traffic class 0 ======
Packet latency average = 15.481 (1 samples)
	minimum = 11 (1 samples)
	maximum = 26 (1 samples)
Network latency average = 15.481 (1 samples)
	minimum = 11 (1 samples)
	maximum = 26 (1 samples)
Flit latency average = 15.4812 (1 samples)
	minimum = 11 (1 samples)
	maximum = 26 (1 samples)
Fragmentation average = 0 (1 samples)
	minimum = 0 (1 samples)
	maximum = 0 (1 samples)
Injected packet rate average = 0.439188 (1 samples)
	minimum = 0.224476 (1 samples)
	maximum = 0.600095 (1 samples)
Accepted packet rate average = 0.438981 (1 samples)
	minimum = 0.22419 (1 samples)
	maximum = 0.599976 (1 samples)
Injected flit rate average = 0.439188 (1 samples)
	minimum = 0.224476 (1 samples)
	maximum = 0.600095 (1 samples)
Accepted flit rate average = 0.438981 (1 samples)
	minimum = 0.22419 (1 samples)
	maximum = 0.599976 (1 samples)
Injected packet size average = 1 (1 samples)
Accepted packet size average = 1 (1 samples)
Hops average = 4.0646 (1 samples)
Total run time 6.15227

