BEGIN Configuration File: D:\noc_huawei\noc\booksim2-noc_speedup_study\booksim2-noc_speedup_study\tests\data\results\fixed_perm_growth_models_perm_4_3_6_1_8_7_2_5_0_peak_0p6_current_defaults\tmp_configs\ordered_fill_dim_order_s2202.config
num_vcs     = 48;
vc_buf_size = 16;
wait_for_tail_credit = 1;

vc_allocator = islip;
sw_allocator = islip;
alloc_iters  = 16;

credit_delay   = 2;
routing_delay  = 0;
vc_alloc_delay = 1;
sw_alloc_delay = 1;
st_final_delay = 1;

input_speedup     = 1;
output_speedup    = 1;
internal_speedup  = 2.0;

sim_type = latency;
latency_thres  = 100000.0;
sim_count      = 1;
queue_sample_period_cycles = 0;

topology = mesh;
k  = 3;
n  = 2;

hybrid_transition_mode = linear_prob;
hybrid_xy_low_threshold = 0.35;
hybrid_racke_high_threshold = 0.65;
hybrid_buffer_soft_threshold = 0.50;
hybrid_buffer_hard_threshold = 0.85;
hybrid_buffer_release_threshold = 0.35;
hybrid_rate_soft_threshold = 0.55;
hybrid_rate_hard_threshold = 0.90;
hybrid_rate_weight = 0.25;
hybrid_congestion_alpha = 0.25;
hybrid_racke_increase_step = 0.25;
hybrid_racke_decrease_step = 0.10;
hybrid_epoch_cycles = 200;
hybrid_hold_cycles = 600;
hybrid_enable_midflight_override = 1;
hybrid_feedback_delay_per_hop = 1;
hybrid_flow_increase_step = 0.20;
hybrid_flow_decrease_step = 0.08;
hybrid_flow_hard_threshold = 0.95;

packet_size = 1;

scheduled_injection_rates = {0.10,0.20,0.30};
scheduled_phase_cycles = {1000,1000,1000};
scheduled_default_phase_cycles = 1000;

custom_perm_array = {4,3,6,1,8,7,2,5,0};
warmup_periods = 2;
seed = 2202;
hybrid_flow_hotspot_alpha = 0.85;
injection_process = ordered_fill;
perm_seed = 2202;
ordered_injection_phase_cycles = {3000,3000,3000,3000,3000,3000,3000,3000,3000,3000,3000,3000,3000,3000};
routing_function = dim_order;
injection_rate = 0.6;
max_samples = 22;
ordered_injection_source_order = {4,0,7,2,8,1,5,3,6};
hybrid_flow_hotspot_threshold = 1.1;
ordered_injection_flow_peak_rate = 0.6;
ordered_injection_coefficients = {0.0833333333333333,0.166666666666667,0.25,0.333333333333333,0.416666666666667,0.5,0.583333333333333,0.666666666666667,0.75,0.833333333333333,0.916666666666667,1.0,1.0,1.0};
hybrid_stats_window_cycles = 3000;
traffic = custom_perm;
sample_period = 3000;

END Configuration File: D:\noc_huawei\noc\booksim2-noc_speedup_study\booksim2-noc_speedup_study\tests\data\results\fixed_perm_growth_models_perm_4_3_6_1_8_7_2_5_0_peak_0p6_current_defaults\tmp_configs\ordered_fill_dim_order_s2202.config
Class 0:
Packet latency average = 11
	minimum = 11
	maximum = 11
	95th percentile = 11.5
	99th percentile = 11.5
Network latency average = 11
	minimum = 11
	maximum = 11
	95th percentile = 11.5
	99th percentile = 11.5
Slowest packet = 0
Flit latency average = 11
	minimum = 11
	maximum = 11
	95th percentile = 11.5
	99th percentile = 11.5
Slowest flit = 0
Fragmentation average = 0
	minimum = 0
	maximum = 0
Injected packet rate average = 0.0497778
	minimum = 0 (at node 0)
	maximum = 0.448 (at node 4)
Accepted packet rate average = 0.0495926
	minimum = 0 (at node 0)
	maximum = 0.446333 (at node 8)
Injected flit rate average = 0.0497778
	minimum = 0 (at node 0)
	maximum = 0.448 (at node 4)
Accepted flit rate average= 0.0495926
	minimum = 0 (at node 0)
	maximum = 0.446333 (at node 8)
Injected packet length average = 1
Accepted packet length average = 1
Total in-flight flits = 5 (0 measured)
====== Peak Queue Occupancy Statistics (Absolute Max) ======
  Overall Max VC Occupancy = 1
  Overall Max Buffer Occupancy = 1
latency change    = 1
throughput change = 1
Class 0:
Packet latency average = 11
	minimum = 11
	maximum = 11
	95th percentile = 11.5
	99th percentile = 11.5
Network latency average = 11
	minimum = 11
	maximum = 11
	95th percentile = 11.5
	99th percentile = 11.5
Slowest packet = 0
Flit latency average = 11
	minimum = 11
	maximum = 11
	95th percentile = 11.5
	99th percentile = 11.5
Slowest flit = 0
Fragmentation average = 0
	minimum = 0
	maximum = 0
Injected packet rate average = 0.0744815
	minimum = 0 (at node 1)
	maximum = 0.523667 (at node 4)
Accepted packet rate average = 0.0743333
	minimum = 0 (at node 0)
	maximum = 0.522833 (at node 8)
Injected flit rate average = 0.0744815
	minimum = 0 (at node 1)
	maximum = 0.523667 (at node 4)
Accepted flit rate average= 0.0743333
	minimum = 0 (at node 0)
	maximum = 0.522833 (at node 8)
Injected packet length average = 1
Accepted packet length average = 1
Total in-flight flits = 8 (0 measured)
====== Peak Queue Occupancy Statistics (Absolute Max) ======
  Overall Max VC Occupancy = 1
  Overall Max Buffer Occupancy = 1
latency change    = 0
throughput change = 0.332835
Warmed up ...Time used is 6000 cycles
Class 0:
Packet latency average = 11
	minimum = 11
	maximum = 11
	95th percentile = 11.5
	99th percentile = 11.5
Network latency average = 11
	minimum = 11
	maximum = 11
	95th percentile = 11.5
	99th percentile = 11.5
Slowest packet = 4022
Flit latency average = 11
	minimum = 11
	maximum = 11
	95th percentile = 11.5
	99th percentile = 11.5
Slowest flit = 4014
Fragmentation average = 0
	minimum = 0
	maximum = 0
Injected packet rate average = 0.148037
	minimum = 0 (at node 1)
	maximum = 0.595 (at node 4)
Accepted packet rate average = 0.147815
	minimum = 0 (at node 0)
	maximum = 0.595333 (at node 8)
Injected flit rate average = 0.148037
	minimum = 0 (at node 1)
	maximum = 0.595 (at node 4)
Accepted flit rate average= 0.147815
	minimum = 0 (at node 0)
	maximum = 0.595333 (at node 8)
Injected packet length average = 1
Accepted packet length average = 1
Total in-flight flits = 14 (14 measured)
====== Peak Queue Occupancy Statistics (Absolute Max) ======
  Overall Max VC Occupancy = 1
  Overall Max Buffer Occupancy = 1
latency change    = 0
throughput change = 0.497119
Class 0:
Packet latency average = 11
	minimum = 11
	maximum = 11
	95th percentile = 11.5
	99th percentile = 11.5
Network latency average = 11
	minimum = 11
	maximum = 11
	95th percentile = 11.5
	99th percentile = 11.5
Slowest packet = 4022
Flit latency average = 11
	minimum = 11
	maximum = 11
	95th percentile = 11.5
	99th percentile = 11.5
Slowest flit = 4014
Fragmentation average = 0
	minimum = 0
	maximum = 0
Injected packet rate average = 0.174926
	minimum = 0 (at node 1)
	maximum = 0.598833 (at node 4)
Accepted packet rate average = 0.174648
	minimum = 0 (at node 0)
	maximum = 0.598167 (at node 4)
Injected flit rate average = 0.174926
	minimum = 0 (at node 1)
	maximum = 0.598833 (at node 4)
Accepted flit rate average= 0.174648
	minimum = 0 (at node 0)
	maximum = 0.598167 (at node 4)
Injected packet length average = 1
Accepted packet length average = 1
Total in-flight flits = 23 (23 measured)
====== Peak Queue Occupancy Statistics (Absolute Max) ======
  Overall Max VC Occupancy = 1
  Overall Max Buffer Occupancy = 1
latency change    = 0
throughput change = 0.153642
Class 0:
Packet latency average = 11.4981
	minimum = 11
	maximum = 17
	95th percentile = 17.5
	99th percentile = 17.5
Network latency average = 11.4981
	minimum = 11
	maximum = 17
	95th percentile = 17.5
	99th percentile = 17.5
Slowest packet = 13474
Flit latency average = 11.4979
	minimum = 11
	maximum = 17
	95th percentile = 17.5
	99th percentile = 17.5
Slowest flit = 13474
Fragmentation average = 0
	minimum = 0
	maximum = 0
Injected packet rate average = 0.19942
	minimum = 0 (at node 1)
	maximum = 0.600778 (at node 4)
Accepted packet rate average = 0.199222
	minimum = 0 (at node 0)
	maximum = 0.600778 (at node 8)
Injected flit rate average = 0.19942
	minimum = 0 (at node 1)
	maximum = 0.600778 (at node 4)
Accepted flit rate average= 0.199222
	minimum = 0 (at node 0)
	maximum = 0.600778 (at node 8)
Injected packet length average = 1
Accepted packet length average = 1
Total in-flight flits = 24 (24 measured)
====== Peak Queue Occupancy Statistics (Absolute Max) ======
  Overall Max VC Occupancy = 1
  Overall Max Buffer Occupancy = 1
latency change    = 0.0433209
throughput change = 0.12335
Class 0:
Packet latency average = 11.982
	minimum = 11
	maximum = 17
	95th percentile = 17.5
	99th percentile = 17.5
Network latency average = 11.982
	minimum = 11
	maximum = 17
	95th percentile = 17.5
	99th percentile = 17.5
Slowest packet = 13474
Flit latency average = 11.9817
	minimum = 11
	maximum = 17
	95th percentile = 17.5
	99th percentile = 17.5
Slowest flit = 13474
Fragmentation average = 0
	minimum = 0
	maximum = 0
Injected packet rate average = 0.223806
	minimum = 0 (at node 1)
	maximum = 0.5975 (at node 0)
Accepted packet rate average = 0.223537
	minimum = 0 (at node 1)
	maximum = 0.597167 (at node 8)
Injected flit rate average = 0.223806
	minimum = 0 (at node 1)
	maximum = 0.5975 (at node 0)
Accepted flit rate average= 0.223537
	minimum = 0 (at node 1)
	maximum = 0.597167 (at node 8)
Injected packet length average = 1
Accepted packet length average = 1
Total in-flight flits = 37 (37 measured)
====== Peak Queue Occupancy Statistics (Absolute Max) ======
  Overall Max VC Occupancy = 1
  Overall Max Buffer Occupancy = 1
latency change    = 0.0403862
throughput change = 0.108773
Class 0:
Packet latency average = 12.373
	minimum = 11
	maximum = 22
	95th percentile = 17.5
	99th percentile = 18.5
Network latency average = 12.373
	minimum = 11
	maximum = 22
	95th percentile = 17.5
	99th percentile = 18.5
Slowest packet = 28712
Flit latency average = 12.3727
	minimum = 11
	maximum = 22
	95th percentile = 17.5
	99th percentile = 18.5
Slowest flit = 28712
Fragmentation average = 0
	minimum = 0
	maximum = 0
Injected packet rate average = 0.248533
	minimum = 0 (at node 3)
	maximum = 0.5992 (at node 4)
Accepted packet rate average = 0.248274
	minimum = 0 (at node 1)
	maximum = 0.599133 (at node 8)
Injected flit rate average = 0.248533
	minimum = 0 (at node 3)
	maximum = 0.5992 (at node 4)
Accepted flit rate average= 0.248274
	minimum = 0 (at node 1)
	maximum = 0.599133 (at node 8)
Injected packet length average = 1
Accepted packet length average = 1
Total in-flight flits = 43 (43 measured)
====== Peak Queue Occupancy Statistics (Absolute Max) ======
  Overall Max VC Occupancy = 1
  Overall Max Buffer Occupancy = 2
latency change    = 0.0316024
throughput change = 0.099636
Class 0:
Packet latency average = 29.2404
	minimum = 11
	maximum = 1300
	95th percentile = 100.5
	99th percentile = 408.5
Network latency average = 21.4845
	minimum = 11
	maximum = 1234
	95th percentile = 89.5
	99th percentile = 179.5
Slowest packet = 40739
Flit latency average = 21.4826
	minimum = 11
	maximum = 1234
	95th percentile = 89.5
	99th percentile = 179.5
Slowest flit = 43470
Fragmentation average = 0
	minimum = 0
	maximum = 0
Injected packet rate average = 0.271346
	minimum = 0 (at node 3)
	maximum = 0.599111 (at node 4)
Accepted packet rate average = 0.270043
	minimum = 0 (at node 1)
	maximum = 0.599111 (at node 8)
Injected flit rate average = 0.271346
	minimum = 0 (at node 3)
	maximum = 0.599111 (at node 4)
Accepted flit rate average= 0.270043
	minimum = 0 (at node 1)
	maximum = 0.599111 (at node 8)
Injected packet length average = 1
Accepted packet length average = 1
Total in-flight flits = 220 (220 measured)
====== Peak Queue Occupancy Statistics (Absolute Max) ======
  Overall Max VC Occupancy = 1
  Overall Max Buffer Occupancy = 48
latency change    = 0.576851
throughput change = 0.0806135
Class 0:
Packet latency average = 62.48
	minimum = 11
	maximum = 1769
	95th percentile = 455.5
	99th percentile = 832.5
Network latency average = 29.2777
	minimum = 11
	maximum = 1629
	95th percentile = 101.5
	99th percentile = 306.5
Slowest packet = 43772
Flit latency average = 29.275
	minimum = 11
	maximum = 1629
	95th percentile = 101.5
	99th percentile = 306.5
Slowest flit = 43772
Fragmentation average = 0
	minimum = 0
	maximum = 0
Injected packet rate average = 0.293889
	minimum = 0 (at node 3)
	maximum = 0.599048 (at node 4)
Accepted packet rate average = 0.292704
	minimum = 0 (at node 1)
	maximum = 0.598857 (at node 8)
Injected flit rate average = 0.293889
	minimum = 0 (at node 3)
	maximum = 0.599048 (at node 4)
Accepted flit rate average= 0.292704
	minimum = 0 (at node 1)
	maximum = 0.598857 (at node 8)
Injected packet length average = 1
Accepted packet length average = 1
Total in-flight flits = 233 (233 measured)
====== Peak Queue Occupancy Statistics (Absolute Max) ======
  Overall Max VC Occupancy = 1
  Overall Max Buffer Occupancy = 48
latency change    = 0.532005
throughput change = 0.0774179
Class 0:
Packet latency average = 103.067
	minimum = 11
	maximum = 2306
	95th percentile = 821.5
	99th percentile = 999.5
Network latency average = 33.9236
	minimum = 11
	maximum = 1629
	95th percentile = 129.5
	99th percentile = 390.5
Slowest packet = 43772
Flit latency average = 33.9209
	minimum = 11
	maximum = 1629
	95th percentile = 129.5
	99th percentile = 390.5
Slowest flit = 43772
Fragmentation average = 0
	minimum = 0
	maximum = 0
Injected packet rate average = 0.317148
	minimum = 0 (at node 6)
	maximum = 0.600958 (at node 4)
Accepted packet rate average = 0.316134
	minimum = 0 (at node 2)
	maximum = 0.601 (at node 8)
Injected flit rate average = 0.317148
	minimum = 0 (at node 6)
	maximum = 0.600958 (at node 4)
Accepted flit rate average= 0.316134
	minimum = 0 (at node 2)
	maximum = 0.601 (at node 8)
Injected packet length average = 1
Accepted packet length average = 1
Total in-flight flits = 227 (227 measured)
====== Peak Queue Occupancy Statistics (Absolute Max) ======
  Overall Max VC Occupancy = 1
  Overall Max Buffer Occupancy = 48
latency change    = 0.393792
throughput change = 0.0741158
Class 0:
Packet latency average = 144.622
	minimum = 11
	maximum = 2727
	95th percentile = 999.5
	99th percentile = 999.5
Network latency average = 36.6663
	minimum = 11
	maximum = 1629
	95th percentile = 138.5
	99th percentile = 442.5
Slowest packet = 43772
Flit latency average = 36.6638
	minimum = 11
	maximum = 1629
	95th percentile = 138.5
	99th percentile = 442.5
Slowest flit = 43772
Fragmentation average = 0
	minimum = 0
	maximum = 0
Injected packet rate average = 0.340679
	minimum = 0.017 (at node 6)
	maximum = 0.601333 (at node 4)
Accepted packet rate average = 0.339745
	minimum = 0.016963 (at node 2)
	maximum = 0.601259 (at node 8)
Injected flit rate average = 0.340679
	minimum = 0.017 (at node 6)
	maximum = 0.601333 (at node 4)
Accepted flit rate average= 0.339745
	minimum = 0.016963 (at node 2)
	maximum = 0.601259 (at node 8)
Injected packet length average = 1
Accepted packet length average = 1
Total in-flight flits = 236 (236 measured)
====== Peak Queue Occupancy Statistics (Absolute Max) ======
  Overall Max VC Occupancy = 1
  Overall Max Buffer Occupancy = 48
latency change    = 0.287337
throughput change = 0.0694951
Class 0:
Packet latency average = 195.817
	minimum = 11
	maximum = 3205
	95th percentile = 999.5
	99th percentile = 999.5
Network latency average = 42.5462
	minimum = 11
	maximum = 1848
	95th percentile = 154.5
	99th percentile = 578.5
Slowest packet = 43772
Flit latency average = 42.5436
	minimum = 11
	maximum = 1848
	95th percentile = 154.5
	99th percentile = 578.5
Slowest flit = 91522
Fragmentation average = 0
	minimum = 0
	maximum = 0
Injected packet rate average = 0.362756
	minimum = 0.066 (at node 6)
	maximum = 0.6014 (at node 4)
Accepted packet rate average = 0.361241
	minimum = 0.0618333 (at node 2)
	maximum = 0.601433 (at node 8)
Injected flit rate average = 0.362756
	minimum = 0.066 (at node 6)
	maximum = 0.6014 (at node 4)
Accepted flit rate average= 0.361241
	minimum = 0.0618333 (at node 2)
	maximum = 0.601433 (at node 8)
Injected packet length average = 1
Accepted packet length average = 1
Total in-flight flits = 419 (419 measured)
====== Peak Queue Occupancy Statistics (Absolute Max) ======
  Overall Max VC Occupancy = 1
  Overall Max Buffer Occupancy = 48
latency change    = 0.26144
throughput change = 0.0595057
Class 0:
Packet latency average = 259.445
	minimum = 11
	maximum = 3785
	95th percentile = 999.5
	99th percentile = 999.5
Network latency average = 48.0569
	minimum = 11
	maximum = 1859
	95th percentile = 181.5
	99th percentile = 623.5
Slowest packet = 43772
Flit latency average = 48.0543
	minimum = 11
	maximum = 1859
	95th percentile = 181.5
	99th percentile = 623.5
Slowest flit = 94349
Fragmentation average = 0
	minimum = 0
	maximum = 0
Injected packet rate average = 0.380397
	minimum = 0.105394 (at node 6)
	maximum = 0.602273 (at node 4)
Accepted packet rate average = 0.379024
	minimum = 0.101939 (at node 2)
	maximum = 0.602303 (at node 8)
Injected flit rate average = 0.380397
	minimum = 0.105394 (at node 6)
	maximum = 0.602273 (at node 4)
Accepted flit rate average= 0.379024
	minimum = 0.101939 (at node 2)
	maximum = 0.602303 (at node 8)
Injected packet length average = 1
Accepted packet length average = 1
Total in-flight flits = 419 (419 measured)
====== Peak Queue Occupancy Statistics (Absolute Max) ======
  Overall Max VC Occupancy = 1
  Overall Max Buffer Occupancy = 48
latency change    = 0.245249
throughput change = 0.0469175
Class 0:
Packet latency average = 332.187
	minimum = 11
	maximum = 4179
	95th percentile = 999.5
	99th percentile = 999.5
Network latency average = 52.2895
	minimum = 11
	maximum = 1859
	95th percentile = 188.5
	99th percentile = 677.5
Slowest packet = 43772
Flit latency average = 52.2869
	minimum = 11
	maximum = 1859
	95th percentile = 188.5
	99th percentile = 677.5
Slowest flit = 94349
Fragmentation average = 0
	minimum = 0
	maximum = 0
Injected packet rate average = 0.394765
	minimum = 0.141083 (at node 6)
	maximum = 0.602389 (at node 4)
Accepted packet rate average = 0.393497
	minimum = 0.137611 (at node 2)
	maximum = 0.602389 (at node 8)
Injected flit rate average = 0.394765
	minimum = 0.141083 (at node 6)
	maximum = 0.602389 (at node 4)
Accepted flit rate average= 0.393497
	minimum = 0.137611 (at node 2)
	maximum = 0.602389 (at node 8)
Injected packet length average = 1
Accepted packet length average = 1
Total in-flight flits = 422 (422 measured)
====== Peak Queue Occupancy Statistics (Absolute Max) ======
  Overall Max VC Occupancy = 1
  Overall Max Buffer Occupancy = 48
latency change    = 0.218977
throughput change = 0.0367813
Class 0:
Packet latency average = 410.231
	minimum = 11
	maximum = 4806
	95th percentile = 999.5
	99th percentile = 999.5
Network latency average = 55.6302
	minimum = 11
	maximum = 1859
	95th percentile = 203.5
	99th percentile = 781.5
Slowest packet = 43772
Flit latency average = 55.6277
	minimum = 11
	maximum = 1859
	95th percentile = 203.5
	99th percentile = 781.5
Slowest flit = 94349
Fragmentation average = 0
	minimum = 0
	maximum = 0
Injected packet rate average = 0.407145
	minimum = 0.165385 (at node 6)
	maximum = 0.601179 (at node 4)
Accepted packet rate average = 0.40598
	minimum = 0.162205 (at node 2)
	maximum = 0.601154 (at node 8)
Injected flit rate average = 0.407145
	minimum = 0.165385 (at node 6)
	maximum = 0.601179 (at node 4)
Accepted flit rate average= 0.40598
	minimum = 0.162205 (at node 2)
	maximum = 0.601154 (at node 8)
Injected packet length average = 1
Accepted packet length average = 1
Total in-flight flits = 419 (419 measured)
====== Peak Queue Occupancy Statistics (Absolute Max) ======
  Overall Max VC Occupancy = 1
  Overall Max Buffer Occupancy = 48
latency change    = 0.190245
throughput change = 0.0307482
Class 0:
Packet latency average = 492.648
	minimum = 11
	maximum = 5330
	95th percentile = 999.5
	99th percentile = 999.5
Network latency average = 58.3116
	minimum = 11
	maximum = 1876
	95th percentile = 221.5
	99th percentile = 781.5
Slowest packet = 43772
Flit latency average = 58.3092
	minimum = 11
	maximum = 1876
	95th percentile = 221.5
	99th percentile = 781.5
Slowest flit = 140272
Fragmentation average = 0
	minimum = 0
	maximum = 0
Injected packet rate average = 0.417733
	minimum = 0.190643 (at node 6)
	maximum = 0.601214 (at node 4)
Accepted packet rate average = 0.416651
	minimum = 0.187976 (at node 2)
	maximum = 0.60119 (at node 8)
Injected flit rate average = 0.417733
	minimum = 0.190643 (at node 6)
	maximum = 0.601214 (at node 4)
Accepted flit rate average= 0.416651
	minimum = 0.187976 (at node 2)
	maximum = 0.60119 (at node 8)
Injected packet length average = 1
Accepted packet length average = 1
Total in-flight flits = 419 (419 measured)
====== Peak Queue Occupancy Statistics (Absolute Max) ======
  Overall Max VC Occupancy = 1
  Overall Max Buffer Occupancy = 48
latency change    = 0.167294
throughput change = 0.0256107
Class 0:
Packet latency average = 578.24
	minimum = 11
	maximum = 5767
	95th percentile = 999.5
	99th percentile = 999.5
Network latency average = 60.5219
	minimum = 11
	maximum = 1914
	95th percentile = 228.5
	99th percentile = 799.5
Slowest packet = 43772
Flit latency average = 60.5196
	minimum = 11
	maximum = 1914
	95th percentile = 228.5
	99th percentile = 799.5
Slowest flit = 163137
Fragmentation average = 0
	minimum = 0
	maximum = 0
Injected packet rate average = 0.426998
	minimum = 0.212489 (at node 6)
	maximum = 0.601733 (at node 4)
Accepted packet rate average = 0.42599
	minimum = 0.209822 (at node 2)
	maximum = 0.601667 (at node 8)
Injected flit rate average = 0.426998
	minimum = 0.212489 (at node 6)
	maximum = 0.601733 (at node 4)
Accepted flit rate average= 0.42599
	minimum = 0.209822 (at node 2)
	maximum = 0.601667 (at node 8)
Injected packet length average = 1
Accepted packet length average = 1
Total in-flight flits = 418 (418 measured)
====== Peak Queue Occupancy Statistics (Absolute Max) ======
  Overall Max VC Occupancy = 1
  Overall Max Buffer Occupancy = 48
latency change    = 0.148022
throughput change = 0.0219238
Class 0:
Packet latency average = 665.852
	minimum = 11
	maximum = 6427
	95th percentile = 999.5
	99th percentile = 999.5
Network latency average = 62.3984
	minimum = 11
	maximum = 1914
	95th percentile = 234.5
	99th percentile = 813.5
Slowest packet = 43772
Flit latency average = 62.3962
	minimum = 11
	maximum = 1914
	95th percentile = 234.5
	99th percentile = 813.5
Slowest flit = 163137
Fragmentation average = 0
	minimum = 0
	maximum = 0
Injected packet rate average = 0.435081
	minimum = 0.227979 (at node 6)
	maximum = 0.60075 (at node 4)
Accepted packet rate average = 0.434134
	minimum = 0.2255 (at node 2)
	maximum = 0.600729 (at node 8)
Injected flit rate average = 0.435081
	minimum = 0.227979 (at node 6)
	maximum = 0.60075 (at node 4)
Accepted flit rate average= 0.434134
	minimum = 0.2255 (at node 2)
	maximum = 0.600729 (at node 8)
Injected packet length average = 1
Accepted packet length average = 1
Total in-flight flits = 418 (418 measured)
====== Peak Queue Occupancy Statistics (Absolute Max) ======
  Overall Max VC Occupancy = 1
  Overall Max Buffer Occupancy = 48
latency change    = 0.131578
throughput change = 0.0187595
Class 0:
Packet latency average = 755.66
	minimum = 11
	maximum = 6893
	95th percentile = 999.5
	99th percentile = 999.5
Network latency average = 64.0189
	minimum = 11
	maximum = 1914
	95th percentile = 239.5
	99th percentile = 871.5
Slowest packet = 43772
Flit latency average = 64.0168
	minimum = 11
	maximum = 1914
	95th percentile = 239.5
	99th percentile = 871.5
Slowest flit = 163137
Fragmentation average = 0
	minimum = 0
	maximum = 0
Injected packet rate average = 0.441943
	minimum = 0.246 (at node 6)
	maximum = 0.600706 (at node 4)
Accepted packet rate average = 0.441054
	minimum = 0.243804 (at node 2)
	maximum = 0.600706 (at node 8)
Injected flit rate average = 0.441943
	minimum = 0.246 (at node 6)
	maximum = 0.600706 (at node 4)
Accepted flit rate average= 0.441054
	minimum = 0.243804 (at node 2)
	maximum = 0.600706 (at node 8)
Injected packet length average = 1
Accepted packet length average = 1
Total in-flight flits = 417 (417 measured)
====== Peak Queue Occupancy Statistics (Absolute Max) ======
  Overall Max VC Occupancy = 1
  Overall Max Buffer Occupancy = 48
latency change    = 0.118848
throughput change = 0.0156901
Class 0:
Packet latency average = 846.398
	minimum = 11
	maximum = 7227
	95th percentile = 999.5
	99th percentile = 999.5
Network latency average = 65.3858
	minimum = 11
	maximum = 1914
	95th percentile = 241.5
	99th percentile = 949.5
Slowest packet = 43772
Flit latency average = 65.3838
	minimum = 11
	maximum = 1914
	95th percentile = 241.5
	99th percentile = 949.5
Slowest flit = 163137
Fragmentation average = 0
	minimum = 0
	maximum = 0
Injected packet rate average = 0.448323
	minimum = 0.260556 (at node 6)
	maximum = 0.600778 (at node 4)
Accepted packet rate average = 0.447467
	minimum = 0.258407 (at node 2)
	maximum = 0.600704 (at node 8)
Injected flit rate average = 0.448323
	minimum = 0.260556 (at node 6)
	maximum = 0.600778 (at node 4)
Accepted flit rate average= 0.447467
	minimum = 0.258407 (at node 2)
	maximum = 0.600704 (at node 8)
Injected packet length average = 1
Accepted packet length average = 1
Total in-flight flits = 427 (427 measured)
====== Peak Queue Occupancy Statistics (Absolute Max) ======
  Overall Max VC Occupancy = 1
  Overall Max Buffer Occupancy = 48
latency change    = 0.107205
throughput change = 0.0143309
Class 0:
Packet latency average = 937.234
	minimum = 11
	maximum = 7893
	95th percentile = 999.5
	99th percentile = 999.5
Network latency average = 66.5685
	minimum = 11
	maximum = 1914
	95th percentile = 245.5
	99th percentile = 995.5
Slowest packet = 43772
Flit latency average = 66.5666
	minimum = 11
	maximum = 1914
	95th percentile = 245.5
	99th percentile = 995.5
Slowest flit = 163137
Fragmentation average = 0
	minimum = 0
	maximum = 0
Injected packet rate average = 0.454057
	minimum = 0.271018 (at node 6)
	maximum = 0.600404 (at node 4)
Accepted packet rate average = 0.453253
	minimum = 0.268982 (at node 2)
	maximum = 0.600368 (at node 8)
Injected flit rate average = 0.454057
	minimum = 0.271018 (at node 6)
	maximum = 0.600404 (at node 4)
Accepted flit rate average= 0.453253
	minimum = 0.268982 (at node 2)
	maximum = 0.600368 (at node 8)
Injected packet length average = 1
Accepted packet length average = 1
Total in-flight flits = 422 (422 measured)
====== Peak Queue Occupancy Statistics (Absolute Max) ======
  Overall Max VC Occupancy = 1
  Overall Max Buffer Occupancy = 48
latency change    = 0.0969189
throughput change = 0.0127662
Class 0:
Packet latency average = 1028.86
	minimum = 11
	maximum = 8258
	95th percentile = 999.5
	99th percentile = 999.5
Network latency average = 67.6127
	minimum = 11
	maximum = 1914
	95th percentile = 248.5
	99th percentile = 999.5
Slowest packet = 43772
Flit latency average = 67.6109
	minimum = 11
	maximum = 1914
	95th percentile = 248.5
	99th percentile = 999.5
Slowest flit = 163137
Fragmentation average = 0
	minimum = 0
	maximum = 0
Injected packet rate average = 0.459226
	minimum = 0.284517 (at node 6)
	maximum = 0.600867 (at node 4)
Accepted packet rate average = 0.458463
	minimum = 0.282617 (at node 2)
	maximum = 0.600817 (at node 8)
Injected flit rate average = 0.459226
	minimum = 0.284517 (at node 6)
	maximum = 0.600867 (at node 4)
Accepted flit rate average= 0.458463
	minimum = 0.282617 (at node 2)
	maximum = 0.600817 (at node 8)
Injected packet length average = 1
Accepted packet length average = 1
Total in-flight flits = 422 (422 measured)
====== Peak Queue Occupancy Statistics (Absolute Max) ======
  Overall Max VC Occupancy = 1
  Overall Max Buffer Occupancy = 48
latency change    = 0.0890569
throughput change = 0.0113631
Draining all recorded packets ...
Class 0:
Remaining flits: 249435 249452 249522 249741 249917 250190 250216 250697 250876 250878 [...] (420 flits)
Measured flits: 249435 249452 249522 249741 249917 250190 250216 250697 250876 250878 [...] (386 flits)
Class 0:
Remaining flits: 253487 254004 254239 254288 254955 255458 255603 255869 255873 255878 [...] (415 flits)
Measured flits: 253487 254004 254239 254288 254955 255458 255603 255869 255873 255878 [...] (383 flits)
Class 0:
Remaining flits: 259651 259894 260147 260389 260624 260859 261099 261336 261576 261582 [...] (420 flits)
Measured flits: 259651 259894 260147 260389 260624 260859 261099 261336 261576 261582 [...] (383 flits)
Class 0:
Remaining flits: 264679 264919 265152 265406 265649 265875 266117 266358 266590 266606 [...] (419 flits)
Measured flits: 264679 264919 265152 265406 265649 265875 266117 266358 266590 266606 [...] (385 flits)
Class 0:
Remaining flits: 269555 269687 269926 270105 270539 270542 270792 270957 271179 271183 [...] (418 flits)
Measured flits: 269555 269687 269926 270105 270539 270542 270792 270957 271179 271183 [...] (385 flits)
Class 0:
Remaining flits: 274113 274328 274364 274397 274602 274877 275305 275325 275583 275705 [...] (424 flits)
Measured flits: 274113 274328 274364 274397 274602 274877 275305 275325 275583 275705 [...] (363 flits)
Class 0:
Remaining flits: 278583 278816 279051 279097 279589 279823 280087 280796 281007 281538 [...] (421 flits)
Measured flits: 278583 278816 279051 279097 279589 279823 280087 280796 281007 281538 [...] (214 flits)
Class 0:
Remaining flits: 284599 284836 285067 285308 285546 285785 285971 286040 286265 286515 [...] (427 flits)
Measured flits: 285971 286859 287104 287221 287296 287325 287339 287565 287781 287805 [...] (193 flits)
Class 0:
Remaining flits: 289577 289838 290088 290174 290326 290584 290653 290834 291081 291335 [...] (424 flits)
Measured flits: 290174 290653 291377 291606 291968 292111 292209 292334 292345 292353 [...] (43 flits)
Draining remaining packets ...
Time taken is 76072 cycles
====== Overall Traffic Statistics ======
====== Traffic class 0 ======
Packet latency average = 1381.4 (1 samples)
	minimum = 11 (1 samples)
	maximum = 10227 (1 samples)
Network latency average = 75.2285 (1 samples)
	minimum = 11 (1 samples)
	maximum = 1914 (1 samples)
Flit latency average = 70.6429 (1 samples)
	minimum = 11 (1 samples)
	maximum = 1914 (1 samples)
Fragmentation average = 0 (1 samples)
	minimum = 0 (1 samples)
	maximum = 0 (1 samples)
Injected packet rate average = 0.459226 (1 samples)
	minimum = 0.284517 (1 samples)
	maximum = 0.600867 (1 samples)
Accepted packet rate average = 0.458463 (1 samples)
	minimum = 0.282617 (1 samples)
	maximum = 0.600817 (1 samples)
Injected flit rate average = 0.459226 (1 samples)
	minimum = 0.284517 (1 samples)
	maximum = 0.600867 (1 samples)
Accepted flit rate average = 0.458463 (1 samples)
	minimum = 0.282617 (1 samples)
	maximum = 0.600817 (1 samples)
Injected packet size average = 1 (1 samples)
Accepted packet size average = 1 (1 samples)
Hops average = 3.62228 (1 samples)
Total run time 28.1619

