BEGIN Configuration File: D:\noc_huawei\noc\booksim2-noc_speedup_study\booksim2-noc_speedup_study\tests\data\results\fixed_perm_growth_models_perm_4_3_6_1_8_7_2_5_0_peak_0p6_current_defaults\tmp_configs\ordered_fill_racke_tree_s2203.config
num_vcs     = 48;
vc_buf_size = 16;
wait_for_tail_credit = 1;

vc_allocator = islip;
sw_allocator = islip;
alloc_iters  = 16;

credit_delay   = 2;
routing_delay  = 0;
vc_alloc_delay = 1;
sw_alloc_delay = 1;
st_final_delay = 1;

input_speedup     = 1;
output_speedup    = 1;
internal_speedup  = 2.0;

sim_type = latency;
latency_thres  = 100000.0;
sim_count      = 1;
queue_sample_period_cycles = 0;

topology = mesh;
k  = 3;
n  = 2;

hybrid_transition_mode = linear_prob;
hybrid_xy_low_threshold = 0.35;
hybrid_racke_high_threshold = 0.65;
hybrid_buffer_soft_threshold = 0.50;
hybrid_buffer_hard_threshold = 0.85;
hybrid_buffer_release_threshold = 0.35;
hybrid_rate_soft_threshold = 0.55;
hybrid_rate_hard_threshold = 0.90;
hybrid_rate_weight = 0.25;
hybrid_congestion_alpha = 0.25;
hybrid_racke_increase_step = 0.25;
hybrid_racke_decrease_step = 0.10;
hybrid_epoch_cycles = 200;
hybrid_hold_cycles = 600;
hybrid_enable_midflight_override = 1;
hybrid_feedback_delay_per_hop = 1;
hybrid_flow_increase_step = 0.20;
hybrid_flow_decrease_step = 0.08;
hybrid_flow_hard_threshold = 0.95;

packet_size = 1;

scheduled_injection_rates = {0.10,0.20,0.30};
scheduled_phase_cycles = {1000,1000,1000};
scheduled_default_phase_cycles = 1000;

custom_perm_array = {4,3,6,1,8,7,2,5,0};
warmup_periods = 2;
seed = 2203;
hybrid_flow_hotspot_alpha = 0.85;
injection_process = ordered_fill;
perm_seed = 2203;
ordered_injection_phase_cycles = {3000,3000,3000,3000,3000,3000,3000,3000,3000,3000,3000,3000,3000,3000};
routing_function = racke_tree;
injection_rate = 0.6;
max_samples = 22;
ordered_injection_source_order = {4,0,7,2,8,1,5,3,6};
hybrid_flow_hotspot_threshold = 1.1;
ordered_injection_flow_peak_rate = 0.6;
ordered_injection_coefficients = {0.0833333333333333,0.166666666666667,0.25,0.333333333333333,0.416666666666667,0.5,0.583333333333333,0.666666666666667,0.75,0.833333333333333,0.916666666666667,1.0,1.0,1.0};
hybrid_stats_window_cycles = 3000;
traffic = custom_perm;
sample_period = 3000;

END Configuration File: D:\noc_huawei\noc\booksim2-noc_speedup_study\booksim2-noc_speedup_study\tests\data\results\fixed_perm_growth_models_perm_4_3_6_1_8_7_2_5_0_peak_0p6_current_defaults\tmp_configs\ordered_fill_racke_tree_s2203.config
Class 0:
Packet latency average = 13.2305
	minimum = 11
	maximum = 19
	95th percentile = 18.5
	99th percentile = 18.5
Network latency average = 13.2305
	minimum = 11
	maximum = 19
	95th percentile = 18.5
	99th percentile = 18.5
Slowest packet = 187
Flit latency average = 13.2305
	minimum = 11
	maximum = 19
	95th percentile = 18.5
	99th percentile = 18.5
Slowest flit = 187
Fragmentation average = 0
	minimum = 0
	maximum = 0
Injected packet rate average = 0.0478148
	minimum = 0 (at node 0)
	maximum = 0.430333 (at node 4)
Accepted packet rate average = 0.0475556
	minimum = 0 (at node 0)
	maximum = 0.428 (at node 8)
Injected flit rate average = 0.0478148
	minimum = 0 (at node 0)
	maximum = 0.430333 (at node 4)
Accepted flit rate average= 0.0475556
	minimum = 0 (at node 0)
	maximum = 0.428 (at node 8)
Injected packet length average = 1
Accepted packet length average = 1
Total in-flight flits = 7 (0 measured)
====== Peak Queue Occupancy Statistics (Absolute Max) ======
  Overall Max VC Occupancy = 1
  Overall Max Buffer Occupancy = 2
latency change    = 1
throughput change = 1
Class 0:
Packet latency average = 13.2518
	minimum = 11
	maximum = 19
	95th percentile = 18.5
	99th percentile = 19.5
Network latency average = 13.2518
	minimum = 11
	maximum = 19
	95th percentile = 18.5
	99th percentile = 19.5
Slowest packet = 187
Flit latency average = 13.2518
	minimum = 11
	maximum = 19
	95th percentile = 18.5
	99th percentile = 19.5
Slowest flit = 187
Fragmentation average = 0
	minimum = 0
	maximum = 0
Injected packet rate average = 0.0737778
	minimum = 0 (at node 1)
	maximum = 0.5135 (at node 4)
Accepted packet rate average = 0.0735556
	minimum = 0 (at node 0)
	maximum = 0.512 (at node 8)
Injected flit rate average = 0.0737778
	minimum = 0 (at node 1)
	maximum = 0.5135 (at node 4)
Accepted flit rate average= 0.0735556
	minimum = 0 (at node 0)
	maximum = 0.512 (at node 8)
Injected packet length average = 1
Accepted packet length average = 1
Total in-flight flits = 12 (0 measured)
====== Peak Queue Occupancy Statistics (Absolute Max) ======
  Overall Max VC Occupancy = 1
  Overall Max Buffer Occupancy = 2
latency change    = 0.00160226
throughput change = 0.353474
Warmed up ...Time used is 6000 cycles
Class 0:
Packet latency average = 13.3479
	minimum = 11
	maximum = 20
	95th percentile = 18.5
	99th percentile = 19.5
Network latency average = 13.3479
	minimum = 11
	maximum = 20
	95th percentile = 18.5
	99th percentile = 19.5
Slowest packet = 5476
Flit latency average = 13.3508
	minimum = 11
	maximum = 20
	95th percentile = 18.5
	99th percentile = 19.5
Slowest flit = 5476
Fragmentation average = 0
	minimum = 0
	maximum = 0
Injected packet rate average = 0.151037
	minimum = 0 (at node 1)
	maximum = 0.604667 (at node 0)
Accepted packet rate average = 0.150852
	minimum = 0 (at node 0)
	maximum = 0.604 (at node 4)
Injected flit rate average = 0.151037
	minimum = 0 (at node 1)
	maximum = 0.604667 (at node 0)
Accepted flit rate average= 0.150852
	minimum = 0 (at node 0)
	maximum = 0.604 (at node 4)
Injected packet length average = 1
Accepted packet length average = 1
Total in-flight flits = 17 (17 measured)
====== Peak Queue Occupancy Statistics (Absolute Max) ======
  Overall Max VC Occupancy = 1
  Overall Max Buffer Occupancy = 2
latency change    = 0.00720572
throughput change = 0.512399
Class 0:
Packet latency average = 13.4637
	minimum = 11
	maximum = 21
	95th percentile = 18.5
	99th percentile = 19.5
Network latency average = 13.4637
	minimum = 11
	maximum = 21
	95th percentile = 18.5
	99th percentile = 19.5
Slowest packet = 13031
Flit latency average = 13.4648
	minimum = 11
	maximum = 21
	95th percentile = 18.5
	99th percentile = 19.5
Slowest flit = 13031
Fragmentation average = 0
	minimum = 0
	maximum = 0
Injected packet rate average = 0.175741
	minimum = 0 (at node 1)
	maximum = 0.599 (at node 0)
Accepted packet rate average = 0.175685
	minimum = 0 (at node 0)
	maximum = 0.598833 (at node 4)
Injected flit rate average = 0.175741
	minimum = 0 (at node 1)
	maximum = 0.599 (at node 0)
Accepted flit rate average= 0.175685
	minimum = 0 (at node 0)
	maximum = 0.598833 (at node 4)
Injected packet length average = 1
Accepted packet length average = 1
Total in-flight flits = 15 (15 measured)
====== Peak Queue Occupancy Statistics (Absolute Max) ======
  Overall Max VC Occupancy = 1
  Overall Max Buffer Occupancy = 2
latency change    = 0.00860109
throughput change = 0.141351
Class 0:
Packet latency average = 13.8692
	minimum = 11
	maximum = 22
	95th percentile = 18.5
	99th percentile = 19.5
Network latency average = 13.8692
	minimum = 11
	maximum = 22
	95th percentile = 18.5
	99th percentile = 19.5
Slowest packet = 18364
Flit latency average = 13.8696
	minimum = 11
	maximum = 22
	95th percentile = 18.5
	99th percentile = 19.5
Slowest flit = 18364
Fragmentation average = 0
	minimum = 0
	maximum = 0
Injected packet rate average = 0.201086
	minimum = 0 (at node 1)
	maximum = 0.603111 (at node 0)
Accepted packet rate average = 0.200889
	minimum = 0 (at node 0)
	maximum = 0.602778 (at node 4)
Injected flit rate average = 0.201086
	minimum = 0 (at node 1)
	maximum = 0.603111 (at node 0)
Accepted flit rate average= 0.200889
	minimum = 0 (at node 0)
	maximum = 0.602778 (at node 4)
Injected packet length average = 1
Accepted packet length average = 1
Total in-flight flits = 28 (28 measured)
====== Peak Queue Occupancy Statistics (Absolute Max) ======
  Overall Max VC Occupancy = 1
  Overall Max Buffer Occupancy = 2
latency change    = 0.0292376
throughput change = 0.125461
Class 0:
Packet latency average = 14.2712
	minimum = 11
	maximum = 23
	95th percentile = 19.5
	99th percentile = 20.5
Network latency average = 14.2712
	minimum = 11
	maximum = 23
	95th percentile = 19.5
	99th percentile = 20.5
Slowest packet = 25587
Flit latency average = 14.2712
	minimum = 11
	maximum = 23
	95th percentile = 19.5
	99th percentile = 20.5
Slowest flit = 25587
Fragmentation average = 0
	minimum = 0
	maximum = 0
Injected packet rate average = 0.226593
	minimum = 0 (at node 1)
	maximum = 0.602833 (at node 0)
Accepted packet rate average = 0.226398
	minimum = 0 (at node 1)
	maximum = 0.602417 (at node 4)
Injected flit rate average = 0.226593
	minimum = 0 (at node 1)
	maximum = 0.602833 (at node 0)
Accepted flit rate average= 0.226398
	minimum = 0 (at node 1)
	maximum = 0.602417 (at node 4)
Injected packet length average = 1
Accepted packet length average = 1
Total in-flight flits = 33 (33 measured)
====== Peak Queue Occupancy Statistics (Absolute Max) ======
  Overall Max VC Occupancy = 1
  Overall Max Buffer Occupancy = 2
latency change    = 0.0281655
throughput change = 0.112674
Class 0:
Packet latency average = 14.5588
	minimum = 11
	maximum = 23
	95th percentile = 19.5
	99th percentile = 20.5
Network latency average = 14.5588
	minimum = 11
	maximum = 23
	95th percentile = 19.5
	99th percentile = 20.5
Slowest packet = 25587
Flit latency average = 14.5587
	minimum = 11
	maximum = 23
	95th percentile = 19.5
	99th percentile = 20.5
Slowest flit = 25587
Fragmentation average = 0
	minimum = 0
	maximum = 0
Injected packet rate average = 0.251363
	minimum = 0 (at node 3)
	maximum = 0.601267 (at node 0)
Accepted packet rate average = 0.251052
	minimum = 0 (at node 1)
	maximum = 0.600867 (at node 4)
Injected flit rate average = 0.251363
	minimum = 0 (at node 3)
	maximum = 0.601267 (at node 0)
Accepted flit rate average= 0.251052
	minimum = 0 (at node 1)
	maximum = 0.600867 (at node 4)
Injected packet length average = 1
Accepted packet length average = 1
Total in-flight flits = 54 (54 measured)
====== Peak Queue Occupancy Statistics (Absolute Max) ======
  Overall Max VC Occupancy = 1
  Overall Max Buffer Occupancy = 2
latency change    = 0.0197517
throughput change = 0.0982016
Class 0:
Packet latency average = 14.7409
	minimum = 11
	maximum = 25
	95th percentile = 19.5
	99th percentile = 20.5
Network latency average = 14.7409
	minimum = 11
	maximum = 25
	95th percentile = 19.5
	99th percentile = 20.5
Slowest packet = 48098
Flit latency average = 14.7408
	minimum = 11
	maximum = 25
	95th percentile = 19.5
	99th percentile = 20.5
Slowest flit = 48098
Fragmentation average = 0
	minimum = 0
	maximum = 0
Injected packet rate average = 0.275685
	minimum = 0 (at node 3)
	maximum = 0.600889 (at node 0)
Accepted packet rate average = 0.275457
	minimum = 0 (at node 1)
	maximum = 0.600722 (at node 4)
Injected flit rate average = 0.275685
	minimum = 0 (at node 3)
	maximum = 0.600889 (at node 0)
Accepted flit rate average= 0.275457
	minimum = 0 (at node 1)
	maximum = 0.600722 (at node 4)
Injected packet length average = 1
Accepted packet length average = 1
Total in-flight flits = 49 (49 measured)
====== Peak Queue Occupancy Statistics (Absolute Max) ======
  Overall Max VC Occupancy = 1
  Overall Max Buffer Occupancy = 2
latency change    = 0.0123541
throughput change = 0.0885981
Class 0:
Packet latency average = 14.8695
	minimum = 11
	maximum = 26
	95th percentile = 19.5
	99th percentile = 21.5
Network latency average = 14.8695
	minimum = 11
	maximum = 26
	95th percentile = 19.5
	99th percentile = 21.5
Slowest packet = 58869
Flit latency average = 14.8694
	minimum = 11
	maximum = 26
	95th percentile = 19.5
	99th percentile = 21.5
Slowest flit = 58869
Fragmentation average = 0
	minimum = 0
	maximum = 0
Injected packet rate average = 0.300683
	minimum = 0 (at node 3)
	maximum = 0.600524 (at node 0)
Accepted packet rate average = 0.300402
	minimum = 0 (at node 1)
	maximum = 0.600286 (at node 4)
Injected flit rate average = 0.300683
	minimum = 0 (at node 3)
	maximum = 0.600524 (at node 0)
Accepted flit rate average= 0.300402
	minimum = 0 (at node 1)
	maximum = 0.600286 (at node 4)
Injected packet length average = 1
Accepted packet length average = 1
Total in-flight flits = 65 (65 measured)
====== Peak Queue Occupancy Statistics (Absolute Max) ======
  Overall Max VC Occupancy = 1
  Overall Max Buffer Occupancy = 3
latency change    = 0.00865213
throughput change = 0.0830398
Class 0:
Packet latency average = 14.9553
	minimum = 11
	maximum = 26
	95th percentile = 19.5
	99th percentile = 21.5
Network latency average = 14.9553
	minimum = 11
	maximum = 26
	95th percentile = 19.5
	99th percentile = 21.5
Slowest packet = 58869
Flit latency average = 14.9552
	minimum = 11
	maximum = 26
	95th percentile = 19.5
	99th percentile = 21.5
Slowest flit = 58869
Fragmentation average = 0
	minimum = 0
	maximum = 0
Injected packet rate average = 0.325639
	minimum = 0 (at node 6)
	maximum = 0.600792 (at node 0)
Accepted packet rate average = 0.325426
	minimum = 0 (at node 2)
	maximum = 0.600625 (at node 4)
Injected flit rate average = 0.325639
	minimum = 0 (at node 6)
	maximum = 0.600792 (at node 0)
Accepted flit rate average= 0.325426
	minimum = 0 (at node 2)
	maximum = 0.600625 (at node 4)
Injected packet length average = 1
Accepted packet length average = 1
Total in-flight flits = 58 (58 measured)
====== Peak Queue Occupancy Statistics (Absolute Max) ======
  Overall Max VC Occupancy = 1
  Overall Max Buffer Occupancy = 3
latency change    = 0.00573558
throughput change = 0.0768956
Class 0:
Packet latency average = 15.0449
	minimum = 11
	maximum = 26
	95th percentile = 20.5
	99th percentile = 21.5
Network latency average = 15.0449
	minimum = 11
	maximum = 26
	95th percentile = 20.5
	99th percentile = 21.5
Slowest packet = 58869
Flit latency average = 15.0448
	minimum = 11
	maximum = 26
	95th percentile = 20.5
	99th percentile = 21.5
Slowest flit = 58869
Fragmentation average = 0
	minimum = 0
	maximum = 0
Injected packet rate average = 0.350523
	minimum = 0.0161852 (at node 6)
	maximum = 0.600815 (at node 0)
Accepted packet rate average = 0.350226
	minimum = 0.016 (at node 2)
	maximum = 0.600667 (at node 4)
Injected flit rate average = 0.350523
	minimum = 0.0161852 (at node 6)
	maximum = 0.600815 (at node 0)
Accepted flit rate average= 0.350226
	minimum = 0.016 (at node 2)
	maximum = 0.600667 (at node 4)
Injected packet length average = 1
Accepted packet length average = 1
Total in-flight flits = 84 (84 measured)
====== Peak Queue Occupancy Statistics (Absolute Max) ======
  Overall Max VC Occupancy = 1
  Overall Max Buffer Occupancy = 3
latency change    = 0.00595449
throughput change = 0.0708125
Class 0:
Packet latency average = 15.1877
	minimum = 11
	maximum = 26
	95th percentile = 20.5
	99th percentile = 21.5
Network latency average = 15.1877
	minimum = 11
	maximum = 26
	95th percentile = 20.5
	99th percentile = 21.5
Slowest packet = 58869
Flit latency average = 15.1876
	minimum = 11
	maximum = 26
	95th percentile = 20.5
	99th percentile = 21.5
Slowest flit = 58869
Fragmentation average = 0
	minimum = 0
	maximum = 0
Injected packet rate average = 0.375726
	minimum = 0.0749333 (at node 6)
	maximum = 0.6005 (at node 0)
Accepted packet rate average = 0.375441
	minimum = 0.0747 (at node 2)
	maximum = 0.6003 (at node 4)
Injected flit rate average = 0.375726
	minimum = 0.0749333 (at node 6)
	maximum = 0.6005 (at node 0)
Accepted flit rate average= 0.375441
	minimum = 0.0747 (at node 2)
	maximum = 0.6003 (at node 4)
Injected packet length average = 1
Accepted packet length average = 1
Total in-flight flits = 89 (89 measured)
====== Peak Queue Occupancy Statistics (Absolute Max) ======
  Overall Max VC Occupancy = 1
  Overall Max Buffer Occupancy = 3
latency change    = 0.00940241
throughput change = 0.0671595
Class 0:
Packet latency average = 15.2957
	minimum = 11
	maximum = 26
	95th percentile = 20.5
	99th percentile = 22.5
Network latency average = 15.2957
	minimum = 11
	maximum = 26
	95th percentile = 20.5
	99th percentile = 22.5
Slowest packet = 58869
Flit latency average = 15.2956
	minimum = 11
	maximum = 26
	95th percentile = 20.5
	99th percentile = 22.5
Slowest flit = 58869
Fragmentation average = 0
	minimum = 0
	maximum = 0
Injected packet rate average = 0.39664
	minimum = 0.122061 (at node 6)
	maximum = 0.603152 (at node 0)
Accepted packet rate average = 0.396397
	minimum = 0.121727 (at node 2)
	maximum = 0.602939 (at node 4)
Injected flit rate average = 0.39664
	minimum = 0.122061 (at node 6)
	maximum = 0.603152 (at node 0)
Accepted flit rate average= 0.396397
	minimum = 0.121727 (at node 2)
	maximum = 0.602939 (at node 4)
Injected packet length average = 1
Accepted packet length average = 1
Total in-flight flits = 84 (84 measured)
====== Peak Queue Occupancy Statistics (Absolute Max) ======
  Overall Max VC Occupancy = 1
  Overall Max Buffer Occupancy = 3
latency change    = 0.00706391
throughput change = 0.0528676
Class 0:
Packet latency average = 15.3701
	minimum = 11
	maximum = 26
	95th percentile = 20.5
	99th percentile = 22.5
Network latency average = 15.3701
	minimum = 11
	maximum = 26
	95th percentile = 20.5
	99th percentile = 22.5
Slowest packet = 58869
Flit latency average = 15.37
	minimum = 11
	maximum = 26
	95th percentile = 20.5
	99th percentile = 22.5
Slowest flit = 58869
Fragmentation average = 0
	minimum = 0
	maximum = 0
Injected packet rate average = 0.413682
	minimum = 0.16075 (at node 6)
	maximum = 0.602694 (at node 0)
Accepted packet rate average = 0.413444
	minimum = 0.160389 (at node 2)
	maximum = 0.6025 (at node 4)
Injected flit rate average = 0.413682
	minimum = 0.16075 (at node 6)
	maximum = 0.602694 (at node 0)
Accepted flit rate average= 0.413444
	minimum = 0.160389 (at node 2)
	maximum = 0.6025 (at node 4)
Injected packet length average = 1
Accepted packet length average = 1
Total in-flight flits = 89 (89 measured)
====== Peak Queue Occupancy Statistics (Absolute Max) ======
  Overall Max VC Occupancy = 1
  Overall Max Buffer Occupancy = 3
latency change    = 0.0048376
throughput change = 0.041232
Class 0:
Packet latency average = 15.4278
	minimum = 11
	maximum = 26
	95th percentile = 20.5
	99th percentile = 22.5
Network latency average = 15.4278
	minimum = 11
	maximum = 26
	95th percentile = 20.5
	99th percentile = 22.5
Slowest packet = 58869
Flit latency average = 15.4277
	minimum = 11
	maximum = 26
	95th percentile = 20.5
	99th percentile = 22.5
Slowest flit = 58869
Fragmentation average = 0
	minimum = 0
	maximum = 0
Injected packet rate average = 0.428117
	minimum = 0.193821 (at node 6)
	maximum = 0.602923 (at node 0)
Accepted packet rate average = 0.427926
	minimum = 0.193641 (at node 2)
	maximum = 0.602744 (at node 4)
Injected flit rate average = 0.428117
	minimum = 0.193821 (at node 6)
	maximum = 0.602923 (at node 0)
Accepted flit rate average= 0.427926
	minimum = 0.193641 (at node 2)
	maximum = 0.602744 (at node 4)
Injected packet length average = 1
Accepted packet length average = 1
Total in-flight flits = 79 (79 measured)
====== Peak Queue Occupancy Statistics (Absolute Max) ======
  Overall Max VC Occupancy = 1
  Overall Max Buffer Occupancy = 3
latency change    = 0.00374064
throughput change = 0.0338411
Class 0:
Packet latency average = 15.475
	minimum = 11
	maximum = 26
	95th percentile = 20.5
	99th percentile = 22.5
Network latency average = 15.475
	minimum = 11
	maximum = 26
	95th percentile = 20.5
	99th percentile = 22.5
Slowest packet = 58869
Flit latency average = 15.4749
	minimum = 11
	maximum = 26
	95th percentile = 20.5
	99th percentile = 22.5
Slowest flit = 58869
Fragmentation average = 0
	minimum = 0
	maximum = 0
Injected packet rate average = 0.440249
	minimum = 0.222976 (at node 6)
	maximum = 0.602619 (at node 0)
Accepted packet rate average = 0.440061
	minimum = 0.222595 (at node 2)
	maximum = 0.602524 (at node 4)
Injected flit rate average = 0.440249
	minimum = 0.222976 (at node 6)
	maximum = 0.602619 (at node 0)
Accepted flit rate average= 0.440061
	minimum = 0.222595 (at node 2)
	maximum = 0.602524 (at node 4)
Injected packet length average = 1
Accepted packet length average = 1
Total in-flight flits = 83 (83 measured)
====== Peak Queue Occupancy Statistics (Absolute Max) ======
  Overall Max VC Occupancy = 1
  Overall Max Buffer Occupancy = 3
latency change    = 0.00304852
throughput change = 0.0275756
Draining all recorded packets ...
Draining remaining packets ...
Time taken is 48042 cycles
====== Overall Traffic Statistics ======
====== Traffic class 0 ======
Packet latency average = 15.4759 (1 samples)
	minimum = 11 (1 samples)
	maximum = 26 (1 samples)
Network latency average = 15.4759 (1 samples)
	minimum = 11 (1 samples)
	maximum = 26 (1 samples)
Flit latency average = 15.4761 (1 samples)
	minimum = 11 (1 samples)
	maximum = 26 (1 samples)
Fragmentation average = 0 (1 samples)
	minimum = 0 (1 samples)
	maximum = 0 (1 samples)
Injected packet rate average = 0.440249 (1 samples)
	minimum = 0.222976 (1 samples)
	maximum = 0.602619 (1 samples)
Accepted packet rate average = 0.440061 (1 samples)
	minimum = 0.222595 (1 samples)
	maximum = 0.602524 (1 samples)
Injected flit rate average = 0.440249 (1 samples)
	minimum = 0.222976 (1 samples)
	maximum = 0.602619 (1 samples)
Accepted flit rate average = 0.440061 (1 samples)
	minimum = 0.222595 (1 samples)
	maximum = 0.602524 (1 samples)
Injected packet size average = 1 (1 samples)
Accepted packet size average = 1 (1 samples)
Hops average = 4.06444 (1 samples)
Total run time 6.22348

