BEGIN Configuration File: D:\noc_huawei\noc\booksim2-noc_speedup_study\booksim2-noc_speedup_study\tests\data\results\dfm_n9_growth_scheduled_2overn_20260409\tmp_configs\dfm_dsl_s2201.config
num_vcs     = 24;
vc_buf_size = 16;
wait_for_tail_credit = 1;

vc_allocator = islip;
sw_allocator = islip;
alloc_iters  = 4;

credit_delay   = 2;
routing_delay  = 0;
vc_alloc_delay = 1;
sw_alloc_delay = 1;
st_final_delay = 1;

input_speedup     = 1;
output_speedup    = 1;
internal_speedup  = 1.0;

sim_type = latency;
latency_thres  = 100000.0;
sim_count      = 1;
queue_sample_period_cycles = 0;

topology = die_mesh_full;
dfm_tiles_per_die = 9;

dfm_hybrid_soft_threshold = 0.25;
dfm_hybrid_hard_threshold = 0.50;
dfm_hybrid_release_threshold = 0.18;
dfm_hybrid_congestion_alpha = 0.25;
dfm_hybrid_increase_step = 0.50;
dfm_hybrid_decrease_step = 0.06;
dfm_hybrid_capacity_guard_ratio = 0.98;
dfm_hybrid_rate_weight = 0.50;
dfm_hybrid_util_target = 0.98;
dfm_hybrid_util_gain = 0.60;
dfm_hybrid_epoch_cycles = 200;
dfm_hybrid_feedback_delay_per_hop = 1;

hybrid_edge_capacity = 1.0;
hybrid_stats_window_cycles = 1000;

packet_size = 1;
traffic = custom_perm;
custom_perm_array = {3,10,20,6,13,23,0,16,26,12,28,2,15,31,5,9,34,8,21,1,29,24,4,32,18,7,35,30,19,11,33,22,14,27,25,17};

injection_rate = 0.05;
dfm_hybrid_stats_window_cycles = 3000;
max_samples = 26;
scheduled_phase_cycles = {3000,3000,3000,3000,3000,3000,3000,3000,3000,3000,3000,3000,3000,3000,3000,3000,3000,3000};
sample_period = 3000;
routing_function = dfm_dsl;
warmup_periods = 2;
injection_process = scheduled;
scheduled_injection_rates = {0.05,0.1,0.15,0.2,0.25,0.3,0.35,0.4,0.45,0.5,0.55,0.6,0.65,0.7,0.75,0.8,0.8,0.8};
scheduled_default_phase_cycles = 3000;
perm_seed = 2201;
seed = 2201;

END Configuration File: D:\noc_huawei\noc\booksim2-noc_speedup_study\booksim2-noc_speedup_study\tests\data\results\dfm_n9_growth_scheduled_2overn_20260409\tmp_configs\dfm_dsl_s2201.config
Class 0:
Packet latency average = 15.8905
	minimum = 10
	maximum = 23
	95th percentile = 18.5
	99th percentile = 21.5
Network latency average = 15.8905
	minimum = 10
	maximum = 23
	95th percentile = 18.5
	99th percentile = 21.5
Slowest packet = 447
Flit latency average = 15.8905
	minimum = 10
	maximum = 23
	95th percentile = 18.5
	99th percentile = 21.5
Slowest flit = 447
Fragmentation average = 0
	minimum = 0
	maximum = 0
Injected packet rate average = 0.0499074
	minimum = 0.0433333 (at node 20)
	maximum = 0.0556667 (at node 30)
Accepted packet rate average = 0.0496296
	minimum = 0.043 (at node 29)
	maximum = 0.0553333 (at node 33)
Injected flit rate average = 0.0499074
	minimum = 0.0433333 (at node 20)
	maximum = 0.0556667 (at node 30)
Accepted flit rate average= 0.0496296
	minimum = 0.043 (at node 29)
	maximum = 0.0553333 (at node 33)
Injected packet length average = 1
Accepted packet length average = 1
Total in-flight flits = 30 (0 measured)
====== Peak Queue Occupancy Statistics (Absolute Max) ======
  Overall Max VC Occupancy = 1
  Overall Max Buffer Occupancy = 3
latency change    = 1
throughput change = 1
Class 0:
Packet latency average = 16.0223
	minimum = 10
	maximum = 28
	95th percentile = 19.5
	99th percentile = 22.5
Network latency average = 16.0223
	minimum = 10
	maximum = 28
	95th percentile = 19.5
	99th percentile = 22.5
Slowest packet = 8317
Flit latency average = 16.0223
	minimum = 10
	maximum = 28
	95th percentile = 19.5
	99th percentile = 22.5
Slowest flit = 8317
Fragmentation average = 0
	minimum = 0
	maximum = 0
Injected packet rate average = 0.0753009
	minimum = 0.0703333 (at node 20)
	maximum = 0.0818333 (at node 1)
Accepted packet rate average = 0.0750046
	minimum = 0.0701667 (at node 29)
	maximum = 0.0816667 (at node 10)
Injected flit rate average = 0.0753009
	minimum = 0.0703333 (at node 20)
	maximum = 0.0818333 (at node 1)
Accepted flit rate average= 0.0750046
	minimum = 0.0701667 (at node 29)
	maximum = 0.0816667 (at node 10)
Injected packet length average = 1
Accepted packet length average = 1
Total in-flight flits = 64 (0 measured)
====== Peak Queue Occupancy Statistics (Absolute Max) ======
  Overall Max VC Occupancy = 1
  Overall Max Buffer Occupancy = 3
latency change    = 0.00822589
throughput change = 0.338312
Warmed up ...Time used is 6000 cycles
Class 0:
Packet latency average = 16.2142
	minimum = 10
	maximum = 27
	95th percentile = 21.5
	99th percentile = 23.5
Network latency average = 16.2142
	minimum = 10
	maximum = 27
	95th percentile = 21.5
	99th percentile = 23.5
Slowest packet = 23670
Flit latency average = 16.2175
	minimum = 10
	maximum = 27
	95th percentile = 21.5
	99th percentile = 23.5
Slowest flit = 23670
Fragmentation average = 0
	minimum = 0
	maximum = 0
Injected packet rate average = 0.148981
	minimum = 0.134 (at node 4)
	maximum = 0.162333 (at node 0)
Accepted packet rate average = 0.148815
	minimum = 0.133667 (at node 13)
	maximum = 0.162333 (at node 3)
Injected flit rate average = 0.148981
	minimum = 0.134 (at node 4)
	maximum = 0.162333 (at node 0)
Accepted flit rate average= 0.148815
	minimum = 0.133667 (at node 13)
	maximum = 0.162333 (at node 3)
Injected packet length average = 1
Accepted packet length average = 1
Total in-flight flits = 82 (82 measured)
====== Peak Queue Occupancy Statistics (Absolute Max) ======
  Overall Max VC Occupancy = 1
  Overall Max Buffer Occupancy = 3
latency change    = 0.0118367
throughput change = 0.495987
Class 0:
Packet latency average = 16.297
	minimum = 10
	maximum = 29
	95th percentile = 21.5
	99th percentile = 23.5
Network latency average = 16.297
	minimum = 10
	maximum = 29
	95th percentile = 21.5
	99th percentile = 23.5
Slowest packet = 53409
Flit latency average = 16.2983
	minimum = 10
	maximum = 29
	95th percentile = 21.5
	99th percentile = 23.5
Slowest flit = 53409
Fragmentation average = 0
	minimum = 0
	maximum = 0
Injected packet rate average = 0.173921
	minimum = 0.163167 (at node 25)
	maximum = 0.186333 (at node 27)
Accepted packet rate average = 0.173713
	minimum = 0.1635 (at node 7)
	maximum = 0.186333 (at node 30)
Injected flit rate average = 0.173921
	minimum = 0.163167 (at node 25)
	maximum = 0.186333 (at node 27)
Accepted flit rate average= 0.173713
	minimum = 0.1635 (at node 7)
	maximum = 0.186333 (at node 30)
Injected packet length average = 1
Accepted packet length average = 1
Total in-flight flits = 109 (109 measured)
====== Peak Queue Occupancy Statistics (Absolute Max) ======
  Overall Max VC Occupancy = 1
  Overall Max Buffer Occupancy = 3
latency change    = 0.00508032
throughput change = 0.143329
Class 0:
Packet latency average = 16.4178
	minimum = 10
	maximum = 31
	95th percentile = 21.5
	99th percentile = 23.5
Network latency average = 16.4178
	minimum = 10
	maximum = 31
	95th percentile = 21.5
	99th percentile = 23.5
Slowest packet = 62815
Flit latency average = 16.4184
	minimum = 10
	maximum = 31
	95th percentile = 21.5
	99th percentile = 23.5
Slowest flit = 62815
Fragmentation average = 0
	minimum = 0
	maximum = 0
Injected packet rate average = 0.199321
	minimum = 0.192889 (at node 33)
	maximum = 0.207556 (at node 27)
Accepted packet rate average = 0.19909
	minimum = 0.192667 (at node 27)
	maximum = 0.207556 (at node 30)
Injected flit rate average = 0.199321
	minimum = 0.192889 (at node 33)
	maximum = 0.207556 (at node 27)
Accepted flit rate average= 0.19909
	minimum = 0.192667 (at node 27)
	maximum = 0.207556 (at node 30)
Injected packet length average = 1
Accepted packet length average = 1
Total in-flight flits = 139 (139 measured)
====== Peak Queue Occupancy Statistics (Absolute Max) ======
  Overall Max VC Occupancy = 1
  Overall Max Buffer Occupancy = 3
latency change    = 0.0073603
throughput change = 0.127463
Class 0:
Packet latency average = 16.526
	minimum = 10
	maximum = 31
	95th percentile = 22.5
	99th percentile = 23.5
Network latency average = 16.526
	minimum = 10
	maximum = 31
	95th percentile = 22.5
	99th percentile = 23.5
Slowest packet = 62815
Flit latency average = 16.5264
	minimum = 10
	maximum = 31
	95th percentile = 22.5
	99th percentile = 23.5
Slowest flit = 62815
Fragmentation average = 0
	minimum = 0
	maximum = 0
Injected packet rate average = 0.224984
	minimum = 0.2185 (at node 33)
	maximum = 0.231417 (at node 8)
Accepted packet rate average = 0.224674
	minimum = 0.218167 (at node 27)
	maximum = 0.231 (at node 26)
Injected flit rate average = 0.224984
	minimum = 0.2185 (at node 33)
	maximum = 0.231417 (at node 8)
Accepted flit rate average= 0.224674
	minimum = 0.218167 (at node 27)
	maximum = 0.231 (at node 26)
Injected packet length average = 1
Accepted packet length average = 1
Total in-flight flits = 198 (198 measured)
====== Peak Queue Occupancy Statistics (Absolute Max) ======
  Overall Max VC Occupancy = 1
  Overall Max Buffer Occupancy = 3
latency change    = 0.00654711
throughput change = 0.113872
Class 0:
Packet latency average = 16.6385
	minimum = 10
	maximum = 31
	95th percentile = 22.5
	99th percentile = 23.5
Network latency average = 16.6385
	minimum = 10
	maximum = 31
	95th percentile = 22.5
	99th percentile = 23.5
Slowest packet = 62815
Flit latency average = 16.6387
	minimum = 10
	maximum = 31
	95th percentile = 22.5
	99th percentile = 23.5
Slowest flit = 62815
Fragmentation average = 0
	minimum = 0
	maximum = 0
Injected packet rate average = 0.250478
	minimum = 0.243533 (at node 15)
	maximum = 0.255867 (at node 8)
Accepted packet rate average = 0.250165
	minimum = 0.2432 (at node 9)
	maximum = 0.255467 (at node 26)
Injected flit rate average = 0.250478
	minimum = 0.243533 (at node 15)
	maximum = 0.255867 (at node 8)
Accepted flit rate average= 0.250165
	minimum = 0.2432 (at node 9)
	maximum = 0.255467 (at node 26)
Injected packet length average = 1
Accepted packet length average = 1
Total in-flight flits = 233 (233 measured)
====== Peak Queue Occupancy Statistics (Absolute Max) ======
  Overall Max VC Occupancy = 1
  Overall Max Buffer Occupancy = 3
latency change    = 0.00676163
throughput change = 0.101898
Class 0:
Packet latency average = 16.7458
	minimum = 10
	maximum = 32
	95th percentile = 22.5
	99th percentile = 24.5
Network latency average = 16.7458
	minimum = 10
	maximum = 32
	95th percentile = 22.5
	99th percentile = 24.5
Slowest packet = 176147
Flit latency average = 16.7459
	minimum = 10
	maximum = 32
	95th percentile = 22.5
	99th percentile = 24.5
Slowest flit = 176147
Fragmentation average = 0
	minimum = 0
	maximum = 0
Injected packet rate average = 0.275457
	minimum = 0.266333 (at node 33)
	maximum = 0.281111 (at node 17)
Accepted packet rate average = 0.275199
	minimum = 0.266111 (at node 27)
	maximum = 0.280778 (at node 8)
Injected flit rate average = 0.275457
	minimum = 0.266333 (at node 33)
	maximum = 0.281111 (at node 17)
Accepted flit rate average= 0.275199
	minimum = 0.266111 (at node 27)
	maximum = 0.280778 (at node 8)
Injected packet length average = 1
Accepted packet length average = 1
Total in-flight flits = 231 (231 measured)
====== Peak Queue Occupancy Statistics (Absolute Max) ======
  Overall Max VC Occupancy = 1
  Overall Max Buffer Occupancy = 3
latency change    = 0.00640478
throughput change = 0.0909678
Class 0:
Packet latency average = 16.8544
	minimum = 10
	maximum = 32
	95th percentile = 22.5
	99th percentile = 24.5
Network latency average = 16.8544
	minimum = 10
	maximum = 32
	95th percentile = 22.5
	99th percentile = 24.5
Slowest packet = 176147
Flit latency average = 16.8545
	minimum = 10
	maximum = 32
	95th percentile = 22.5
	99th percentile = 24.5
Slowest flit = 176147
Fragmentation average = 0
	minimum = 0
	maximum = 0
Injected packet rate average = 0.300312
	minimum = 0.29219 (at node 33)
	maximum = 0.305571 (at node 17)
Accepted packet rate average = 0.300041
	minimum = 0.291905 (at node 27)
	maximum = 0.305238 (at node 8)
Injected flit rate average = 0.300312
	minimum = 0.29219 (at node 33)
	maximum = 0.305571 (at node 17)
Accepted flit rate average= 0.300041
	minimum = 0.291905 (at node 27)
	maximum = 0.305238 (at node 8)
Injected packet length average = 1
Accepted packet length average = 1
Total in-flight flits = 269 (269 measured)
====== Peak Queue Occupancy Statistics (Absolute Max) ======
  Overall Max VC Occupancy = 1
  Overall Max Buffer Occupancy = 3
latency change    = 0.00644436
throughput change = 0.0827951
Class 0:
Packet latency average = 16.9626
	minimum = 10
	maximum = 32
	95th percentile = 22.5
	99th percentile = 25.5
Network latency average = 16.9626
	minimum = 10
	maximum = 32
	95th percentile = 22.5
	99th percentile = 25.5
Slowest packet = 176147
Flit latency average = 16.9626
	minimum = 10
	maximum = 32
	95th percentile = 22.5
	99th percentile = 25.5
Slowest flit = 176147
Fragmentation average = 0
	minimum = 0
	maximum = 0
Injected packet rate average = 0.325119
	minimum = 0.318833 (at node 33)
	maximum = 0.329958 (at node 17)
Accepted packet rate average = 0.324828
	minimum = 0.318417 (at node 27)
	maximum = 0.329542 (at node 8)
Injected flit rate average = 0.325119
	minimum = 0.318833 (at node 33)
	maximum = 0.329958 (at node 17)
Accepted flit rate average= 0.324828
	minimum = 0.318417 (at node 27)
	maximum = 0.329542 (at node 8)
Injected packet length average = 1
Accepted packet length average = 1
Total in-flight flits = 316 (316 measured)
====== Peak Queue Occupancy Statistics (Absolute Max) ======
  Overall Max VC Occupancy = 1
  Overall Max Buffer Occupancy = 3
latency change    = 0.00638002
throughput change = 0.0763068
Class 0:
Packet latency average = 17.0757
	minimum = 10
	maximum = 34
	95th percentile = 23.5
	99th percentile = 25.5
Network latency average = 17.0757
	minimum = 10
	maximum = 34
	95th percentile = 23.5
	99th percentile = 25.5
Slowest packet = 306527
Flit latency average = 17.0757
	minimum = 10
	maximum = 34
	95th percentile = 23.5
	99th percentile = 25.5
Slowest flit = 306527
Fragmentation average = 0
	minimum = 0
	maximum = 0
Injected packet rate average = 0.349824
	minimum = 0.343741 (at node 30)
	maximum = 0.353556 (at node 34)
Accepted packet rate average = 0.349527
	minimum = 0.343481 (at node 33)
	maximum = 0.353111 (at node 25)
Injected flit rate average = 0.349824
	minimum = 0.343741 (at node 30)
	maximum = 0.353556 (at node 34)
Accepted flit rate average= 0.349527
	minimum = 0.343481 (at node 33)
	maximum = 0.353111 (at node 25)
Injected packet length average = 1
Accepted packet length average = 1
Total in-flight flits = 353 (353 measured)
====== Peak Queue Occupancy Statistics (Absolute Max) ======
  Overall Max VC Occupancy = 1
  Overall Max Buffer Occupancy = 3
latency change    = 0.00661927
throughput change = 0.0706647
Class 0:
Packet latency average = 17.1914
	minimum = 10
	maximum = 34
	95th percentile = 23.5
	99th percentile = 25.5
Network latency average = 17.1914
	minimum = 10
	maximum = 34
	95th percentile = 23.5
	99th percentile = 25.5
Slowest packet = 306527
Flit latency average = 17.1914
	minimum = 10
	maximum = 34
	95th percentile = 23.5
	99th percentile = 25.5
Slowest flit = 306527
Fragmentation average = 0
	minimum = 0
	maximum = 0
Injected packet rate average = 0.374523
	minimum = 0.369067 (at node 30)
	maximum = 0.377467 (at node 12)
Accepted packet rate average = 0.374212
	minimum = 0.368667 (at node 33)
	maximum = 0.377267 (at node 15)
Injected flit rate average = 0.374523
	minimum = 0.369067 (at node 30)
	maximum = 0.377467 (at node 12)
Accepted flit rate average= 0.374212
	minimum = 0.368667 (at node 33)
	maximum = 0.377267 (at node 15)
Injected packet length average = 1
Accepted packet length average = 1
Total in-flight flits = 400 (400 measured)
====== Peak Queue Occupancy Statistics (Absolute Max) ======
  Overall Max VC Occupancy = 1
  Overall Max Buffer Occupancy = 3
latency change    = 0.00673315
throughput change = 0.065966
Class 0:
Packet latency average = 17.3222
	minimum = 10
	maximum = 34
	95th percentile = 23.5
	99th percentile = 25.5
Network latency average = 17.3222
	minimum = 10
	maximum = 34
	95th percentile = 23.5
	99th percentile = 25.5
Slowest packet = 306527
Flit latency average = 17.3222
	minimum = 10
	maximum = 34
	95th percentile = 23.5
	99th percentile = 25.5
Slowest flit = 306527
Fragmentation average = 0
	minimum = 0
	maximum = 0
Injected packet rate average = 0.399449
	minimum = 0.393545 (at node 30)
	maximum = 0.40297 (at node 12)
Accepted packet rate average = 0.399141
	minimum = 0.393152 (at node 33)
	maximum = 0.402697 (at node 15)
Injected flit rate average = 0.399449
	minimum = 0.393545 (at node 30)
	maximum = 0.40297 (at node 12)
Accepted flit rate average= 0.399141
	minimum = 0.393152 (at node 33)
	maximum = 0.402697 (at node 15)
Injected packet length average = 1
Accepted packet length average = 1
Total in-flight flits = 430 (430 measured)
====== Peak Queue Occupancy Statistics (Absolute Max) ======
  Overall Max VC Occupancy = 1
  Overall Max Buffer Occupancy = 4
latency change    = 0.00755218
throughput change = 0.0624575
Class 0:
Packet latency average = 17.4718
	minimum = 10
	maximum = 36
	95th percentile = 23.5
	99th percentile = 26.5
Network latency average = 17.4718
	minimum = 10
	maximum = 36
	95th percentile = 23.5
	99th percentile = 26.5
Slowest packet = 564720
Flit latency average = 17.4718
	minimum = 10
	maximum = 36
	95th percentile = 23.5
	99th percentile = 26.5
Slowest flit = 564720
Fragmentation average = 0
	minimum = 0
	maximum = 0
Injected packet rate average = 0.424615
	minimum = 0.420472 (at node 30)
	maximum = 0.428528 (at node 12)
Accepted packet rate average = 0.424292
	minimum = 0.420167 (at node 33)
	maximum = 0.428306 (at node 15)
Injected flit rate average = 0.424615
	minimum = 0.420472 (at node 30)
	maximum = 0.428528 (at node 12)
Accepted flit rate average= 0.424292
	minimum = 0.420167 (at node 33)
	maximum = 0.428306 (at node 15)
Injected packet length average = 1
Accepted packet length average = 1
Total in-flight flits = 482 (482 measured)
====== Peak Queue Occupancy Statistics (Absolute Max) ======
  Overall Max VC Occupancy = 1
  Overall Max Buffer Occupancy = 4
latency change    = 0.00856143
throughput change = 0.0592776
Class 0:
Packet latency average = 17.6312
	minimum = 10
	maximum = 48
	95th percentile = 23.5
	99th percentile = 26.5
Network latency average = 17.6312
	minimum = 10
	maximum = 48
	95th percentile = 23.5
	99th percentile = 26.5
Slowest packet = 606469
Flit latency average = 17.6312
	minimum = 10
	maximum = 48
	95th percentile = 23.5
	99th percentile = 26.5
Slowest flit = 606469
Fragmentation average = 0
	minimum = 0
	maximum = 0
Injected packet rate average = 0.449632
	minimum = 0.445333 (at node 30)
	maximum = 0.453667 (at node 12)
Accepted packet rate average = 0.449315
	minimum = 0.445051 (at node 33)
	maximum = 0.453359 (at node 15)
Injected flit rate average = 0.449632
	minimum = 0.445333 (at node 30)
	maximum = 0.453667 (at node 12)
Accepted flit rate average= 0.449315
	minimum = 0.445051 (at node 33)
	maximum = 0.453359 (at node 15)
Injected packet length average = 1
Accepted packet length average = 1
Total in-flight flits = 510 (510 measured)
====== Peak Queue Occupancy Statistics (Absolute Max) ======
  Overall Max VC Occupancy = 1
  Overall Max Buffer Occupancy = 4
latency change    = 0.00904093
throughput change = 0.0556901
Class 0:
Packet latency average = 17.7978
	minimum = 10
	maximum = 48
	95th percentile = 24.5
	99th percentile = 27.5
Network latency average = 17.7978
	minimum = 10
	maximum = 48
	95th percentile = 24.5
	99th percentile = 27.5
Slowest packet = 606469
Flit latency average = 17.7978
	minimum = 10
	maximum = 48
	95th percentile = 24.5
	99th percentile = 27.5
Slowest flit = 606469
Fragmentation average = 0
	minimum = 0
	maximum = 0
Injected packet rate average = 0.474554
	minimum = 0.470524 (at node 30)
	maximum = 0.478238 (at node 12)
Accepted packet rate average = 0.474254
	minimum = 0.47031 (at node 33)
	maximum = 0.477976 (at node 15)
Injected flit rate average = 0.474554
	minimum = 0.470524 (at node 30)
	maximum = 0.478238 (at node 12)
Accepted flit rate average= 0.474254
	minimum = 0.47031 (at node 33)
	maximum = 0.477976 (at node 15)
Injected packet length average = 1
Accepted packet length average = 1
Total in-flight flits = 518 (518 measured)
====== Peak Queue Occupancy Statistics (Absolute Max) ======
  Overall Max VC Occupancy = 1
  Overall Max Buffer Occupancy = 4
latency change    = 0.00936084
throughput change = 0.0525861
Class 0:
Packet latency average = 17.9272
	minimum = 10
	maximum = 48
	95th percentile = 24.5
	99th percentile = 27.5
Network latency average = 17.9272
	minimum = 10
	maximum = 48
	95th percentile = 24.5
	99th percentile = 27.5
Slowest packet = 606469
Flit latency average = 17.9272
	minimum = 10
	maximum = 48
	95th percentile = 24.5
	99th percentile = 27.5
Slowest flit = 606469
Fragmentation average = 0
	minimum = 0
	maximum = 0
Injected packet rate average = 0.49621
	minimum = 0.4922 (at node 30)
	maximum = 0.499644 (at node 12)
Accepted packet rate average = 0.495906
	minimum = 0.491911 (at node 33)
	maximum = 0.499444 (at node 15)
Injected flit rate average = 0.49621
	minimum = 0.4922 (at node 30)
	maximum = 0.499644 (at node 12)
Accepted flit rate average= 0.495906
	minimum = 0.491911 (at node 33)
	maximum = 0.499444 (at node 15)
Injected packet length average = 1
Accepted packet length average = 1
Total in-flight flits = 557 (557 measured)
====== Peak Queue Occupancy Statistics (Absolute Max) ======
  Overall Max VC Occupancy = 1
  Overall Max Buffer Occupancy = 4
latency change    = 0.00721804
throughput change = 0.0436619
Class 0:
Packet latency average = 18.035
	minimum = 10
	maximum = 48
	95th percentile = 24.5
	99th percentile = 27.5
Network latency average = 18.035
	minimum = 10
	maximum = 48
	95th percentile = 24.5
	99th percentile = 27.5
Slowest packet = 606469
Flit latency average = 18.0349
	minimum = 10
	maximum = 48
	95th percentile = 24.5
	99th percentile = 27.5
Slowest flit = 606469
Fragmentation average = 0
	minimum = 0
	maximum = 0
Injected packet rate average = 0.515198
	minimum = 0.511146 (at node 30)
	maximum = 0.517625 (at node 12)
Accepted packet rate average = 0.514935
	minimum = 0.510875 (at node 33)
	maximum = 0.517396 (at node 15)
Injected flit rate average = 0.515198
	minimum = 0.511146 (at node 30)
	maximum = 0.517625 (at node 12)
Accepted flit rate average= 0.514935
	minimum = 0.510875 (at node 33)
	maximum = 0.517396 (at node 15)
Injected packet length average = 1
Accepted packet length average = 1
Total in-flight flits = 520 (520 measured)
====== Peak Queue Occupancy Statistics (Absolute Max) ======
  Overall Max VC Occupancy = 1
  Overall Max Buffer Occupancy = 4
latency change    = 0.00597686
throughput change = 0.0369531
Class 0:
Packet latency average = 18.1248
	minimum = 10
	maximum = 48
	95th percentile = 24.5
	99th percentile = 27.5
Network latency average = 18.1248
	minimum = 10
	maximum = 48
	95th percentile = 24.5
	99th percentile = 27.5
Slowest packet = 606469
Flit latency average = 18.1247
	minimum = 10
	maximum = 48
	95th percentile = 24.5
	99th percentile = 27.5
Slowest flit = 606469
Fragmentation average = 0
	minimum = 0
	maximum = 0
Injected packet rate average = 0.531941
	minimum = 0.528412 (at node 30)
	maximum = 0.535059 (at node 9)
Accepted packet rate average = 0.531676
	minimum = 0.528176 (at node 33)
	maximum = 0.534804 (at node 12)
Injected flit rate average = 0.531941
	minimum = 0.528412 (at node 30)
	maximum = 0.535059 (at node 9)
Accepted flit rate average= 0.531676
	minimum = 0.528176 (at node 33)
	maximum = 0.534804 (at node 12)
Injected packet length average = 1
Accepted packet length average = 1
Total in-flight flits = 549 (549 measured)
====== Peak Queue Occupancy Statistics (Absolute Max) ======
  Overall Max VC Occupancy = 1
  Overall Max Buffer Occupancy = 4
latency change    = 0.00495218
throughput change = 0.0314888
Draining all recorded packets ...
Draining remaining packets ...
Time taken is 57054 cycles
====== Overall Traffic Statistics ======
====== Traffic class 0 ======
Packet latency average = 18.1258 (1 samples)
	minimum = 10 (1 samples)
	maximum = 48 (1 samples)
Network latency average = 18.1258 (1 samples)
	minimum = 10 (1 samples)
	maximum = 48 (1 samples)
Flit latency average = 18.1263 (1 samples)
	minimum = 10 (1 samples)
	maximum = 48 (1 samples)
Fragmentation average = 0 (1 samples)
	minimum = 0 (1 samples)
	maximum = 0 (1 samples)
Injected packet rate average = 0.531941 (1 samples)
	minimum = 0.528412 (1 samples)
	maximum = 0.535059 (1 samples)
Accepted packet rate average = 0.531676 (1 samples)
	minimum = 0.528176 (1 samples)
	maximum = 0.534804 (1 samples)
Injected flit rate average = 0.531941 (1 samples)
	minimum = 0.528412 (1 samples)
	maximum = 0.535059 (1 samples)
Accepted flit rate average = 0.531676 (1 samples)
	minimum = 0.528176 (1 samples)
	maximum = 0.534804 (1 samples)
Injected packet size average = 1 (1 samples)
Accepted packet size average = 1 (1 samples)
Hops average = 3.44432 (1 samples)
Total run time 25.883
====== Observed Edge Statistics ======
edge_capacity = 1
Edge (0 -> 1) dst_input_port=2 max_buffer_ratio=1 buffer_over_90_fraction=0.0533792 buffer_full_fraction=0.0533792 max_full_streak=7 edge_capacity=0.222222 max_edge_load=0.181 max_edge_utilization=0.8145 total_traversals=6135 buffer_exploded=1 load_exceeded_capacity=0
Edge (0 -> 2) dst_input_port=2 max_buffer_ratio=1 buffer_over_90_fraction=0.0501008 buffer_full_fraction=0.0501008 max_full_streak=5 edge_capacity=0.222222 max_edge_load=0.18 max_edge_utilization=0.81 total_traversals=6114 buffer_exploded=1 load_exceeded_capacity=0
Edge (0 -> 3) dst_input_port=2 max_buffer_ratio=1 buffer_over_90_fraction=0.0223695 buffer_full_fraction=0.0223695 max_full_streak=5 edge_capacity=0.222222 max_edge_load=0.183 max_edge_utilization=0.8235 total_traversals=6132 buffer_exploded=1 load_exceeded_capacity=0
Edge (0 -> 4) dst_input_port=2 max_buffer_ratio=1 buffer_over_90_fraction=0.0494065 buffer_full_fraction=0.0494065 max_full_streak=5 edge_capacity=0.222222 max_edge_load=0.182 max_edge_utilization=0.819 total_traversals=6134 buffer_exploded=1 load_exceeded_capacity=0
Edge (0 -> 5) dst_input_port=2 max_buffer_ratio=1 buffer_over_90_fraction=0.0248115 buffer_full_fraction=0.0248115 max_full_streak=5 edge_capacity=0.222222 max_edge_load=0.181 max_edge_utilization=0.8145 total_traversals=6141 buffer_exploded=1 load_exceeded_capacity=0
Edge (0 -> 6) dst_input_port=2 max_buffer_ratio=1 buffer_over_90_fraction=0.0215355 buffer_full_fraction=0.0215355 max_full_streak=6 edge_capacity=0.222222 max_edge_load=0.181 max_edge_utilization=0.8145 total_traversals=6149 buffer_exploded=1 load_exceeded_capacity=0
Edge (0 -> 7) dst_input_port=2 max_buffer_ratio=1 buffer_over_90_fraction=0.0539052 buffer_full_fraction=0.0539052 max_full_streak=6 edge_capacity=0.222222 max_edge_load=0.181 max_edge_utilization=0.8145 total_traversals=6132 buffer_exploded=1 load_exceeded_capacity=0
Edge (0 -> 8) dst_input_port=2 max_buffer_ratio=1 buffer_over_90_fraction=0.037578 buffer_full_fraction=0.037578 max_full_streak=6 edge_capacity=0.222222 max_edge_load=0.182 max_edge_utilization=0.819 total_traversals=6131 buffer_exploded=1 load_exceeded_capacity=0
Edge (0 -> 9) dst_input_port=0 max_buffer_ratio=1 buffer_over_90_fraction=0.000911721 buffer_full_fraction=0.000911721 max_full_streak=1 edge_capacity=1 max_edge_load=0.272 max_edge_utilization=0.272 total_traversals=9182 buffer_exploded=1 load_exceeded_capacity=0
Edge (0 -> 18) dst_input_port=0 max_buffer_ratio=1 buffer_over_90_fraction=0.000613604 buffer_full_fraction=0.000613604 max_full_streak=1 edge_capacity=1 max_edge_load=0.27 max_edge_utilization=0.27 total_traversals=9223 buffer_exploded=1 load_exceeded_capacity=0
Edge (1 -> 0) dst_input_port=2 max_buffer_ratio=1 buffer_over_90_fraction=0.0498133 buffer_full_fraction=0.0498133 max_full_streak=7 edge_capacity=0.222222 max_edge_load=0.18 max_edge_utilization=0.81 total_traversals=6147 buffer_exploded=1 load_exceeded_capacity=0
Edge (1 -> 2) dst_input_port=3 max_buffer_ratio=1 buffer_over_90_fraction=0.0497045 buffer_full_fraction=0.0497045 max_full_streak=5 edge_capacity=0.222222 max_edge_load=0.179 max_edge_utilization=0.8055 total_traversals=6119 buffer_exploded=1 load_exceeded_capacity=0
Edge (1 -> 3) dst_input_port=3 max_buffer_ratio=1 buffer_over_90_fraction=0.0634667 buffer_full_fraction=0.0634667 max_full_streak=7 edge_capacity=0.222222 max_edge_load=0.181 max_edge_utilization=0.8145 total_traversals=6137 buffer_exploded=1 load_exceeded_capacity=0
Edge (1 -> 4) dst_input_port=3 max_buffer_ratio=1 buffer_over_90_fraction=0.0316664 buffer_full_fraction=0.0316664 max_full_streak=6 edge_capacity=0.222222 max_edge_load=0.182 max_edge_utilization=0.819 total_traversals=6139 buffer_exploded=1 load_exceeded_capacity=0
Edge (1 -> 5) dst_input_port=3 max_buffer_ratio=1 buffer_over_90_fraction=0.0212188 buffer_full_fraction=0.0212188 max_full_streak=6 edge_capacity=0.222222 max_edge_load=0.18 max_edge_utilization=0.81 total_traversals=6146 buffer_exploded=1 load_exceeded_capacity=0
Edge (1 -> 6) dst_input_port=3 max_buffer_ratio=1 buffer_over_90_fraction=0.0366577 buffer_full_fraction=0.0366577 max_full_streak=6 edge_capacity=0.222222 max_edge_load=0.18 max_edge_utilization=0.81 total_traversals=6154 buffer_exploded=1 load_exceeded_capacity=0
Edge (1 -> 7) dst_input_port=3 max_buffer_ratio=1 buffer_over_90_fraction=0.0469797 buffer_full_fraction=0.0469797 max_full_streak=5 edge_capacity=0.222222 max_edge_load=0.18 max_edge_utilization=0.81 total_traversals=6137 buffer_exploded=1 load_exceeded_capacity=0
Edge (1 -> 8) dst_input_port=3 max_buffer_ratio=1 buffer_over_90_fraction=0.0570998 buffer_full_fraction=0.0570998 max_full_streak=7 edge_capacity=0.222222 max_edge_load=0.18 max_edge_utilization=0.81 total_traversals=6135 buffer_exploded=1 load_exceeded_capacity=0
Edge (1 -> 10) dst_input_port=0 max_buffer_ratio=1 buffer_over_90_fraction=0.00128014 buffer_full_fraction=0.00128014 max_full_streak=2 edge_capacity=1 max_edge_load=0.271 max_edge_utilization=0.271 total_traversals=9182 buffer_exploded=1 load_exceeded_capacity=0
Edge (1 -> 19) dst_input_port=0 max_buffer_ratio=1 buffer_over_90_fraction=0.000526122 buffer_full_fraction=0.000526122 max_full_streak=1 edge_capacity=1 max_edge_load=0.271 max_edge_utilization=0.271 total_traversals=9222 buffer_exploded=1 load_exceeded_capacity=0
Edge (2 -> 0) dst_input_port=3 max_buffer_ratio=1 buffer_over_90_fraction=0.0138192 buffer_full_fraction=0.0138192 max_full_streak=5 edge_capacity=0.222222 max_edge_load=0.181 max_edge_utilization=0.8145 total_traversals=6157 buffer_exploded=1 load_exceeded_capacity=0
Edge (2 -> 1) dst_input_port=3 max_buffer_ratio=1 buffer_over_90_fraction=0.0328329 buffer_full_fraction=0.0328329 max_full_streak=8 edge_capacity=0.222222 max_edge_load=0.18 max_edge_utilization=0.81 total_traversals=6150 buffer_exploded=1 load_exceeded_capacity=0
Edge (2 -> 3) dst_input_port=4 max_buffer_ratio=1 buffer_over_90_fraction=0.0388191 buffer_full_fraction=0.0388191 max_full_streak=6 edge_capacity=0.222222 max_edge_load=0.181 max_edge_utilization=0.8145 total_traversals=6146 buffer_exploded=1 load_exceeded_capacity=0
Edge (2 -> 4) dst_input_port=4 max_buffer_ratio=1 buffer_over_90_fraction=0.0528226 buffer_full_fraction=0.0528226 max_full_streak=5 edge_capacity=0.222222 max_edge_load=0.184 max_edge_utilization=0.828 total_traversals=6150 buffer_exploded=1 load_exceeded_capacity=0
Edge (2 -> 5) dst_input_port=4 max_buffer_ratio=1 buffer_over_90_fraction=0.0316391 buffer_full_fraction=0.0316391 max_full_streak=5 edge_capacity=0.222222 max_edge_load=0.183 max_edge_utilization=0.8235 total_traversals=6157 buffer_exploded=1 load_exceeded_capacity=0
Edge (2 -> 6) dst_input_port=4 max_buffer_ratio=1 buffer_over_90_fraction=0.0374971 buffer_full_fraction=0.0374971 max_full_streak=5 edge_capacity=0.222222 max_edge_load=0.181 max_edge_utilization=0.8145 total_traversals=6164 buffer_exploded=1 load_exceeded_capacity=0
Edge (2 -> 7) dst_input_port=4 max_buffer_ratio=1 buffer_over_90_fraction=0.0306393 buffer_full_fraction=0.0306393 max_full_streak=5 edge_capacity=0.222222 max_edge_load=0.18 max_edge_utilization=0.81 total_traversals=6147 buffer_exploded=1 load_exceeded_capacity=0
Edge (2 -> 8) dst_input_port=4 max_buffer_ratio=1 buffer_over_90_fraction=0.0456746 buffer_full_fraction=0.0456746 max_full_streak=6 edge_capacity=0.222222 max_edge_load=0.181 max_edge_utilization=0.8145 total_traversals=6145 buffer_exploded=1 load_exceeded_capacity=0
Edge (2 -> 11) dst_input_port=0 max_buffer_ratio=1 buffer_over_90_fraction=0.000385816 buffer_full_fraction=0.000385816 max_full_streak=1 edge_capacity=1 max_edge_load=0.273 max_edge_utilization=0.273 total_traversals=9182 buffer_exploded=1 load_exceeded_capacity=0
Edge (2 -> 20) dst_input_port=0 max_buffer_ratio=1 buffer_over_90_fraction=0.000526334 buffer_full_fraction=0.000526334 max_full_streak=1 edge_capacity=1 max_edge_load=0.27 max_edge_utilization=0.27 total_traversals=9221 buffer_exploded=1 load_exceeded_capacity=0
Edge (3 -> 0) dst_input_port=4 max_buffer_ratio=1 buffer_over_90_fraction=0.0319328 buffer_full_fraction=0.0319328 max_full_streak=5 edge_capacity=0.222222 max_edge_load=0.182 max_edge_utilization=0.819 total_traversals=6159 buffer_exploded=1 load_exceeded_capacity=0
Edge (3 -> 1) dst_input_port=4 max_buffer_ratio=1 buffer_over_90_fraction=0.0427935 buffer_full_fraction=0.0427935 max_full_streak=7 edge_capacity=0.222222 max_edge_load=0.182 max_edge_utilization=0.819 total_traversals=6153 buffer_exploded=1 load_exceeded_capacity=0
Edge (3 -> 2) dst_input_port=4 max_buffer_ratio=1 buffer_over_90_fraction=0.0446706 buffer_full_fraction=0.0446706 max_full_streak=6 edge_capacity=0.222222 max_edge_load=0.182 max_edge_utilization=0.819 total_traversals=6132 buffer_exploded=1 load_exceeded_capacity=0
Edge (3 -> 4) dst_input_port=5 max_buffer_ratio=1 buffer_over_90_fraction=0.0432838 buffer_full_fraction=0.0432838 max_full_streak=6 edge_capacity=0.222222 max_edge_load=0.182 max_edge_utilization=0.819 total_traversals=6152 buffer_exploded=1 load_exceeded_capacity=0
Edge (3 -> 5) dst_input_port=5 max_buffer_ratio=1 buffer_over_90_fraction=0.0412856 buffer_full_fraction=0.0412856 max_full_streak=5 edge_capacity=0.222222 max_edge_load=0.181 max_edge_utilization=0.8145 total_traversals=6159 buffer_exploded=1 load_exceeded_capacity=0
Edge (3 -> 6) dst_input_port=5 max_buffer_ratio=1 buffer_over_90_fraction=0.0306818 buffer_full_fraction=0.0306818 max_full_streak=7 edge_capacity=0.222222 max_edge_load=0.182 max_edge_utilization=0.819 total_traversals=6168 buffer_exploded=1 load_exceeded_capacity=0
Edge (3 -> 7) dst_input_port=5 max_buffer_ratio=1 buffer_over_90_fraction=0.0303802 buffer_full_fraction=0.0303802 max_full_streak=6 edge_capacity=0.222222 max_edge_load=0.182 max_edge_utilization=0.819 total_traversals=6150 buffer_exploded=1 load_exceeded_capacity=0
Edge (3 -> 8) dst_input_port=5 max_buffer_ratio=1 buffer_over_90_fraction=0.0280877 buffer_full_fraction=0.0280877 max_full_streak=5 edge_capacity=0.222222 max_edge_load=0.182 max_edge_utilization=0.819 total_traversals=6148 buffer_exploded=1 load_exceeded_capacity=0
Edge (3 -> 12) dst_input_port=0 max_buffer_ratio=1 buffer_over_90_fraction=0.000508763 buffer_full_fraction=0.000508763 max_full_streak=1 edge_capacity=1 max_edge_load=0.272 max_edge_utilization=0.272 total_traversals=9181 buffer_exploded=1 load_exceeded_capacity=0
Edge (3 -> 21) dst_input_port=0 max_buffer_ratio=1 buffer_over_90_fraction=0.00129909 buffer_full_fraction=0.00129909 max_full_streak=2 edge_capacity=1 max_edge_load=0.27 max_edge_utilization=0.27 total_traversals=9221 buffer_exploded=1 load_exceeded_capacity=0
Edge (4 -> 0) dst_input_port=5 max_buffer_ratio=1 buffer_over_90_fraction=0.0320052 buffer_full_fraction=0.0320052 max_full_streak=5 edge_capacity=0.222222 max_edge_load=0.182 max_edge_utilization=0.819 total_traversals=6131 buffer_exploded=1 load_exceeded_capacity=0
Edge (4 -> 1) dst_input_port=5 max_buffer_ratio=1 buffer_over_90_fraction=0.0218185 buffer_full_fraction=0.0218185 max_full_streak=6 edge_capacity=0.222222 max_edge_load=0.183 max_edge_utilization=0.8235 total_traversals=6125 buffer_exploded=1 load_exceeded_capacity=0
Edge (4 -> 2) dst_input_port=5 max_buffer_ratio=1 buffer_over_90_fraction=0.0206834 buffer_full_fraction=0.0206834 max_full_streak=6 edge_capacity=0.222222 max_edge_load=0.18 max_edge_utilization=0.81 total_traversals=6104 buffer_exploded=1 load_exceeded_capacity=0
Edge (4 -> 3) dst_input_port=5 max_buffer_ratio=1 buffer_over_90_fraction=0.0249276 buffer_full_fraction=0.0249276 max_full_streak=6 edge_capacity=0.222222 max_edge_load=0.181 max_edge_utilization=0.8145 total_traversals=6121 buffer_exploded=1 load_exceeded_capacity=0
Edge (4 -> 5) dst_input_port=6 max_buffer_ratio=1 buffer_over_90_fraction=0.0477327 buffer_full_fraction=0.0477327 max_full_streak=7 edge_capacity=0.222222 max_edge_load=0.183 max_edge_utilization=0.8235 total_traversals=6132 buffer_exploded=1 load_exceeded_capacity=0
Edge (4 -> 6) dst_input_port=6 max_buffer_ratio=1 buffer_over_90_fraction=0.0379187 buffer_full_fraction=0.0379187 max_full_streak=6 edge_capacity=0.222222 max_edge_load=0.183 max_edge_utilization=0.8235 total_traversals=6139 buffer_exploded=1 load_exceeded_capacity=0
Edge (4 -> 7) dst_input_port=6 max_buffer_ratio=1 buffer_over_90_fraction=0.0411566 buffer_full_fraction=0.0411566 max_full_streak=7 edge_capacity=0.222222 max_edge_load=0.183 max_edge_utilization=0.8235 total_traversals=6123 buffer_exploded=1 load_exceeded_capacity=0
Edge (4 -> 8) dst_input_port=6 max_buffer_ratio=1 buffer_over_90_fraction=0.0574602 buffer_full_fraction=0.0574602 max_full_streak=5 edge_capacity=0.222222 max_edge_load=0.184 max_edge_utilization=0.828 total_traversals=6120 buffer_exploded=1 load_exceeded_capacity=0
Edge (4 -> 13) dst_input_port=0 max_buffer_ratio=1 buffer_over_90_fraction=0.000930527 buffer_full_fraction=0.000930527 max_full_streak=3 edge_capacity=1 max_edge_load=0.271 max_edge_utilization=0.271 total_traversals=9180 buffer_exploded=1 load_exceeded_capacity=0
Edge (4 -> 22) dst_input_port=0 max_buffer_ratio=1 buffer_over_90_fraction=0.00115924 buffer_full_fraction=0.00115924 max_full_streak=1 edge_capacity=1 max_edge_load=0.271 max_edge_utilization=0.271 total_traversals=9221 buffer_exploded=1 load_exceeded_capacity=0
Edge (5 -> 0) dst_input_port=6 max_buffer_ratio=1 buffer_over_90_fraction=0.0516619 buffer_full_fraction=0.0516619 max_full_streak=6 edge_capacity=0.222222 max_edge_load=0.179 max_edge_utilization=0.8055 total_traversals=6144 buffer_exploded=1 load_exceeded_capacity=0
Edge (5 -> 1) dst_input_port=6 max_buffer_ratio=1 buffer_over_90_fraction=0.0381938 buffer_full_fraction=0.0381938 max_full_streak=5 edge_capacity=0.222222 max_edge_load=0.181 max_edge_utilization=0.8145 total_traversals=6137 buffer_exploded=1 load_exceeded_capacity=0
Edge (5 -> 2) dst_input_port=6 max_buffer_ratio=1 buffer_over_90_fraction=0.0152323 buffer_full_fraction=0.0152323 max_full_streak=5 edge_capacity=0.222222 max_edge_load=0.178 max_edge_utilization=0.801 total_traversals=6116 buffer_exploded=1 load_exceeded_capacity=0
Edge (5 -> 3) dst_input_port=6 max_buffer_ratio=1 buffer_over_90_fraction=0.0605768 buffer_full_fraction=0.0605768 max_full_streak=6 edge_capacity=0.222222 max_edge_load=0.18 max_edge_utilization=0.81 total_traversals=6133 buffer_exploded=1 load_exceeded_capacity=0
Edge (5 -> 4) dst_input_port=6 max_buffer_ratio=1 buffer_over_90_fraction=0.0214375 buffer_full_fraction=0.0214375 max_full_streak=6 edge_capacity=0.222222 max_edge_load=0.181 max_edge_utilization=0.8145 total_traversals=6136 buffer_exploded=1 load_exceeded_capacity=0
Edge (5 -> 6) dst_input_port=7 max_buffer_ratio=1 buffer_over_90_fraction=0.0424388 buffer_full_fraction=0.0424388 max_full_streak=5 edge_capacity=0.222222 max_edge_load=0.18 max_edge_utilization=0.81 total_traversals=6151 buffer_exploded=1 load_exceeded_capacity=0
Edge (5 -> 7) dst_input_port=7 max_buffer_ratio=1 buffer_over_90_fraction=0.025153 buffer_full_fraction=0.025153 max_full_streak=6 edge_capacity=0.222222 max_edge_load=0.18 max_edge_utilization=0.81 total_traversals=6135 buffer_exploded=1 load_exceeded_capacity=0
Edge (5 -> 8) dst_input_port=7 max_buffer_ratio=1 buffer_over_90_fraction=0.042452 buffer_full_fraction=0.042452 max_full_streak=5 edge_capacity=0.222222 max_edge_load=0.178 max_edge_utilization=0.801 total_traversals=6133 buffer_exploded=1 load_exceeded_capacity=0
Edge (5 -> 14) dst_input_port=0 max_buffer_ratio=1 buffer_over_90_fraction=0.000596963 buffer_full_fraction=0.000596963 max_full_streak=1 edge_capacity=1 max_edge_load=0.271 max_edge_utilization=0.271 total_traversals=9180 buffer_exploded=1 load_exceeded_capacity=0
Edge (5 -> 23) dst_input_port=0 max_buffer_ratio=1 buffer_over_90_fraction=0.00119449 buffer_full_fraction=0.00119449 max_full_streak=2 edge_capacity=1 max_edge_load=0.271 max_edge_utilization=0.271 total_traversals=9221 buffer_exploded=1 load_exceeded_capacity=0
Edge (6 -> 0) dst_input_port=7 max_buffer_ratio=1 buffer_over_90_fraction=0.056255 buffer_full_fraction=0.056255 max_full_streak=6 edge_capacity=0.222222 max_edge_load=0.183 max_edge_utilization=0.8235 total_traversals=6152 buffer_exploded=1 load_exceeded_capacity=0
Edge (6 -> 1) dst_input_port=7 max_buffer_ratio=1 buffer_over_90_fraction=0.0583365 buffer_full_fraction=0.0583365 max_full_streak=5 edge_capacity=0.222222 max_edge_load=0.179 max_edge_utilization=0.8055 total_traversals=6145 buffer_exploded=1 load_exceeded_capacity=0
Edge (6 -> 2) dst_input_port=7 max_buffer_ratio=1 buffer_over_90_fraction=0.0285023 buffer_full_fraction=0.0285023 max_full_streak=5 edge_capacity=0.222222 max_edge_load=0.18 max_edge_utilization=0.81 total_traversals=6124 buffer_exploded=1 load_exceeded_capacity=0
Edge (6 -> 3) dst_input_port=7 max_buffer_ratio=1 buffer_over_90_fraction=0.0464557 buffer_full_fraction=0.0464557 max_full_streak=5 edge_capacity=0.222222 max_edge_load=0.18 max_edge_utilization=0.81 total_traversals=6140 buffer_exploded=1 load_exceeded_capacity=0
Edge (6 -> 4) dst_input_port=7 max_buffer_ratio=1 buffer_over_90_fraction=0.0475856 buffer_full_fraction=0.0475856 max_full_streak=6 edge_capacity=0.222222 max_edge_load=0.182 max_edge_utilization=0.819 total_traversals=6143 buffer_exploded=1 load_exceeded_capacity=0
Edge (6 -> 5) dst_input_port=7 max_buffer_ratio=1 buffer_over_90_fraction=0.0227089 buffer_full_fraction=0.0227089 max_full_streak=6 edge_capacity=0.222222 max_edge_load=0.181 max_edge_utilization=0.8145 total_traversals=6151 buffer_exploded=1 load_exceeded_capacity=0
Edge (6 -> 7) dst_input_port=8 max_buffer_ratio=1 buffer_over_90_fraction=0.0507372 buffer_full_fraction=0.0507372 max_full_streak=5 edge_capacity=0.222222 max_edge_load=0.182 max_edge_utilization=0.819 total_traversals=6142 buffer_exploded=1 load_exceeded_capacity=0
Edge (6 -> 8) dst_input_port=8 max_buffer_ratio=1 buffer_over_90_fraction=0.0451911 buffer_full_fraction=0.0451911 max_full_streak=5 edge_capacity=0.222222 max_edge_load=0.181 max_edge_utilization=0.8145 total_traversals=6140 buffer_exploded=1 load_exceeded_capacity=0
Edge (6 -> 15) dst_input_port=0 max_buffer_ratio=1 buffer_over_90_fraction=0.000333773 buffer_full_fraction=0.000333773 max_full_streak=1 edge_capacity=1 max_edge_load=0.271 max_edge_utilization=0.271 total_traversals=9180 buffer_exploded=1 load_exceeded_capacity=0
Edge (6 -> 24) dst_input_port=0 max_buffer_ratio=1 buffer_over_90_fraction=0.00119479 buffer_full_fraction=0.00119479 max_full_streak=1 edge_capacity=1 max_edge_load=0.272 max_edge_utilization=0.272 total_traversals=9220 buffer_exploded=1 load_exceeded_capacity=0
Edge (7 -> 0) dst_input_port=8 max_buffer_ratio=1 buffer_over_90_fraction=0.0585214 buffer_full_fraction=0.0585214 max_full_streak=5 edge_capacity=0.222222 max_edge_load=0.182 max_edge_utilization=0.819 total_traversals=6130 buffer_exploded=1 load_exceeded_capacity=0
Edge (7 -> 1) dst_input_port=8 max_buffer_ratio=1 buffer_over_90_fraction=0.0375949 buffer_full_fraction=0.0375949 max_full_streak=6 edge_capacity=0.222222 max_edge_load=0.181 max_edge_utilization=0.8145 total_traversals=6123 buffer_exploded=1 load_exceeded_capacity=0
Edge (7 -> 2) dst_input_port=8 max_buffer_ratio=1 buffer_over_90_fraction=0.0485568 buffer_full_fraction=0.0485568 max_full_streak=6 edge_capacity=0.222222 max_edge_load=0.18 max_edge_utilization=0.81 total_traversals=6103 buffer_exploded=1 load_exceeded_capacity=0
Edge (7 -> 3) dst_input_port=8 max_buffer_ratio=1 buffer_over_90_fraction=0.0421038 buffer_full_fraction=0.0421038 max_full_streak=5 edge_capacity=0.222222 max_edge_load=0.182 max_edge_utilization=0.819 total_traversals=6119 buffer_exploded=1 load_exceeded_capacity=0
Edge (7 -> 4) dst_input_port=8 max_buffer_ratio=1 buffer_over_90_fraction=0.030793 buffer_full_fraction=0.030793 max_full_streak=5 edge_capacity=0.222222 max_edge_load=0.181 max_edge_utilization=0.8145 total_traversals=6122 buffer_exploded=1 load_exceeded_capacity=0
Edge (7 -> 5) dst_input_port=8 max_buffer_ratio=1 buffer_over_90_fraction=0.0452957 buffer_full_fraction=0.0452957 max_full_streak=7 edge_capacity=0.222222 max_edge_load=0.181 max_edge_utilization=0.8145 total_traversals=6130 buffer_exploded=1 load_exceeded_capacity=0
Edge (7 -> 6) dst_input_port=8 max_buffer_ratio=1 buffer_over_90_fraction=0.0251366 buffer_full_fraction=0.0251366 max_full_streak=5 edge_capacity=0.222222 max_edge_load=0.181 max_edge_utilization=0.8145 total_traversals=6137 buffer_exploded=1 load_exceeded_capacity=0
Edge (7 -> 8) dst_input_port=9 max_buffer_ratio=1 buffer_over_90_fraction=0.0424485 buffer_full_fraction=0.0424485 max_full_streak=5 edge_capacity=0.222222 max_edge_load=0.181 max_edge_utilization=0.8145 total_traversals=6119 buffer_exploded=1 load_exceeded_capacity=0
Edge (7 -> 16) dst_input_port=0 max_buffer_ratio=1 buffer_over_90_fraction=0.000123001 buffer_full_fraction=0.000123001 max_full_streak=1 edge_capacity=1 max_edge_load=0.271 max_edge_utilization=0.271 total_traversals=9180 buffer_exploded=1 load_exceeded_capacity=0
Edge (7 -> 25) dst_input_port=0 max_buffer_ratio=1 buffer_over_90_fraction=0.000492109 buffer_full_fraction=0.000492109 max_full_streak=1 edge_capacity=1 max_edge_load=0.272 max_edge_utilization=0.272 total_traversals=9220 buffer_exploded=1 load_exceeded_capacity=0
Edge (8 -> 0) dst_input_port=9 max_buffer_ratio=1 buffer_over_90_fraction=0.0277583 buffer_full_fraction=0.0277583 max_full_streak=4 edge_capacity=0.222222 max_edge_load=0.181 max_edge_utilization=0.8145 total_traversals=6148 buffer_exploded=1 load_exceeded_capacity=0
Edge (8 -> 1) dst_input_port=9 max_buffer_ratio=1 buffer_over_90_fraction=0.0392824 buffer_full_fraction=0.0392824 max_full_streak=6 edge_capacity=0.222222 max_edge_load=0.183 max_edge_utilization=0.8235 total_traversals=6141 buffer_exploded=1 load_exceeded_capacity=0
Edge (8 -> 2) dst_input_port=9 max_buffer_ratio=1 buffer_over_90_fraction=0.0307007 buffer_full_fraction=0.0307007 max_full_streak=6 edge_capacity=0.222222 max_edge_load=0.18 max_edge_utilization=0.81 total_traversals=6120 buffer_exploded=1 load_exceeded_capacity=0
Edge (8 -> 3) dst_input_port=9 max_buffer_ratio=1 buffer_over_90_fraction=0.0504976 buffer_full_fraction=0.0504976 max_full_streak=6 edge_capacity=0.222222 max_edge_load=0.182 max_edge_utilization=0.819 total_traversals=6137 buffer_exploded=1 load_exceeded_capacity=0
Edge (8 -> 4) dst_input_port=9 max_buffer_ratio=1 buffer_over_90_fraction=0.0449085 buffer_full_fraction=0.0449085 max_full_streak=6 edge_capacity=0.222222 max_edge_load=0.181 max_edge_utilization=0.8145 total_traversals=6140 buffer_exploded=1 load_exceeded_capacity=0
Edge (8 -> 5) dst_input_port=9 max_buffer_ratio=1 buffer_over_90_fraction=0.0332678 buffer_full_fraction=0.0332678 max_full_streak=6 edge_capacity=0.222222 max_edge_load=0.181 max_edge_utilization=0.8145 total_traversals=6147 buffer_exploded=1 load_exceeded_capacity=0
Edge (8 -> 6) dst_input_port=9 max_buffer_ratio=1 buffer_over_90_fraction=0.0697319 buffer_full_fraction=0.0697319 max_full_streak=6 edge_capacity=0.222222 max_edge_load=0.181 max_edge_utilization=0.8145 total_traversals=6155 buffer_exploded=1 load_exceeded_capacity=0
Edge (8 -> 7) dst_input_port=9 max_buffer_ratio=1 buffer_over_90_fraction=0.0149907 buffer_full_fraction=0.0149907 max_full_streak=6 edge_capacity=0.222222 max_edge_load=0.182 max_edge_utilization=0.819 total_traversals=6138 buffer_exploded=1 load_exceeded_capacity=0
Edge (8 -> 17) dst_input_port=0 max_buffer_ratio=1 buffer_over_90_fraction=0.000263843 buffer_full_fraction=0.000263843 max_full_streak=1 edge_capacity=1 max_edge_load=0.271 max_edge_utilization=0.271 total_traversals=9179 buffer_exploded=1 load_exceeded_capacity=0
Edge (8 -> 26) dst_input_port=0 max_buffer_ratio=1 buffer_over_90_fraction=0.00105496 buffer_full_fraction=0.00105496 max_full_streak=2 edge_capacity=1 max_edge_load=0.27 max_edge_utilization=0.27 total_traversals=9220 buffer_exploded=1 load_exceeded_capacity=0
Edge (9 -> 0) dst_input_port=0 max_buffer_ratio=1 buffer_over_90_fraction=0.00268261 buffer_full_fraction=0.00268261 max_full_streak=1 edge_capacity=1 max_edge_load=0.268 max_edge_utilization=0.268 total_traversals=9191 buffer_exploded=1 load_exceeded_capacity=0
Edge (9 -> 10) dst_input_port=2 max_buffer_ratio=1 buffer_over_90_fraction=0.0570802 buffer_full_fraction=0.0570802 max_full_streak=6 edge_capacity=0.222222 max_edge_load=0.181 max_edge_utilization=0.8145 total_traversals=6154 buffer_exploded=1 load_exceeded_capacity=0
Edge (9 -> 11) dst_input_port=2 max_buffer_ratio=1 buffer_over_90_fraction=0.0608037 buffer_full_fraction=0.0608037 max_full_streak=6 edge_capacity=0.222222 max_edge_load=0.18 max_edge_utilization=0.81 total_traversals=6157 buffer_exploded=1 load_exceeded_capacity=0
Edge (9 -> 12) dst_input_port=2 max_buffer_ratio=1 buffer_over_90_fraction=0.0156094 buffer_full_fraction=0.0156094 max_full_streak=5 edge_capacity=0.222222 max_edge_load=0.185 max_edge_utilization=0.8325 total_traversals=6168 buffer_exploded=1 load_exceeded_capacity=0
Edge (9 -> 13) dst_input_port=2 max_buffer_ratio=1 buffer_over_90_fraction=0.051005 buffer_full_fraction=0.051005 max_full_streak=5 edge_capacity=0.222222 max_edge_load=0.182 max_edge_utilization=0.819 total_traversals=6139 buffer_exploded=1 load_exceeded_capacity=0
Edge (9 -> 14) dst_input_port=2 max_buffer_ratio=1 buffer_over_90_fraction=0.0340544 buffer_full_fraction=0.0340544 max_full_streak=6 edge_capacity=0.222222 max_edge_load=0.18 max_edge_utilization=0.81 total_traversals=6142 buffer_exploded=1 load_exceeded_capacity=0
Edge (9 -> 15) dst_input_port=2 max_buffer_ratio=1 buffer_over_90_fraction=0.0333924 buffer_full_fraction=0.0333924 max_full_streak=7 edge_capacity=0.222222 max_edge_load=0.182 max_edge_utilization=0.819 total_traversals=6167 buffer_exploded=1 load_exceeded_capacity=0
Edge (9 -> 16) dst_input_port=2 max_buffer_ratio=1 buffer_over_90_fraction=0.02937 buffer_full_fraction=0.02937 max_full_streak=6 edge_capacity=0.222222 max_edge_load=0.183 max_edge_utilization=0.8235 total_traversals=6138 buffer_exploded=1 load_exceeded_capacity=0
Edge (9 -> 17) dst_input_port=2 max_buffer_ratio=1 buffer_over_90_fraction=0.0217155 buffer_full_fraction=0.0217155 max_full_streak=6 edge_capacity=0.222222 max_edge_load=0.181 max_edge_utilization=0.8145 total_traversals=6151 buffer_exploded=1 load_exceeded_capacity=0
Edge (9 -> 27) dst_input_port=0 max_buffer_ratio=1 buffer_over_90_fraction=0.000122734 buffer_full_fraction=0.000122734 max_full_streak=1 edge_capacity=1 max_edge_load=0.271 max_edge_utilization=0.271 total_traversals=9207 buffer_exploded=1 load_exceeded_capacity=0
Edge (10 -> 1) dst_input_port=0 max_buffer_ratio=1 buffer_over_90_fraction=0.00184117 buffer_full_fraction=0.00184117 max_full_streak=2 edge_capacity=1 max_edge_load=0.268 max_edge_utilization=0.268 total_traversals=9189 buffer_exploded=1 load_exceeded_capacity=0
Edge (10 -> 9) dst_input_port=2 max_buffer_ratio=1 buffer_over_90_fraction=0.0179705 buffer_full_fraction=0.0179705 max_full_streak=6 edge_capacity=0.222222 max_edge_load=0.182 max_edge_utilization=0.819 total_traversals=6137 buffer_exploded=1 load_exceeded_capacity=0
Edge (10 -> 11) dst_input_port=3 max_buffer_ratio=1 buffer_over_90_fraction=0.0316358 buffer_full_fraction=0.0316358 max_full_streak=5 edge_capacity=0.222222 max_edge_load=0.181 max_edge_utilization=0.8145 total_traversals=6144 buffer_exploded=1 load_exceeded_capacity=0
Edge (10 -> 12) dst_input_port=3 max_buffer_ratio=1 buffer_over_90_fraction=0.0278997 buffer_full_fraction=0.0278997 max_full_streak=6 edge_capacity=0.222222 max_edge_load=0.182 max_edge_utilization=0.819 total_traversals=6153 buffer_exploded=1 load_exceeded_capacity=0
Edge (10 -> 13) dst_input_port=3 max_buffer_ratio=1 buffer_over_90_fraction=0.0525087 buffer_full_fraction=0.0525087 max_full_streak=5 edge_capacity=0.222222 max_edge_load=0.181 max_edge_utilization=0.8145 total_traversals=6126 buffer_exploded=1 load_exceeded_capacity=0
Edge (10 -> 14) dst_input_port=3 max_buffer_ratio=1 buffer_over_90_fraction=0.0471552 buffer_full_fraction=0.0471552 max_full_streak=5 edge_capacity=0.222222 max_edge_load=0.18 max_edge_utilization=0.81 total_traversals=6129 buffer_exploded=1 load_exceeded_capacity=0
Edge (10 -> 15) dst_input_port=3 max_buffer_ratio=1 buffer_over_90_fraction=0.0512582 buffer_full_fraction=0.0512582 max_full_streak=5 edge_capacity=0.222222 max_edge_load=0.181 max_edge_utilization=0.8145 total_traversals=6154 buffer_exploded=1 load_exceeded_capacity=0
Edge (10 -> 16) dst_input_port=3 max_buffer_ratio=1 buffer_over_90_fraction=0.0229038 buffer_full_fraction=0.0229038 max_full_streak=6 edge_capacity=0.222222 max_edge_load=0.181 max_edge_utilization=0.8145 total_traversals=6125 buffer_exploded=1 load_exceeded_capacity=0
Edge (10 -> 17) dst_input_port=3 max_buffer_ratio=1 buffer_over_90_fraction=0.0527867 buffer_full_fraction=0.0527867 max_full_streak=6 edge_capacity=0.222222 max_edge_load=0.181 max_edge_utilization=0.8145 total_traversals=6138 buffer_exploded=1 load_exceeded_capacity=0
Edge (10 -> 28) dst_input_port=0 max_buffer_ratio=1 buffer_over_90_fraction=0.00191164 buffer_full_fraction=0.00191164 max_full_streak=2 edge_capacity=1 max_edge_load=0.272 max_edge_utilization=0.272 total_traversals=9207 buffer_exploded=1 load_exceeded_capacity=0
Edge (11 -> 2) dst_input_port=0 max_buffer_ratio=1 buffer_over_90_fraction=0.000648872 buffer_full_fraction=0.000648872 max_full_streak=2 edge_capacity=1 max_edge_load=0.269 max_edge_utilization=0.269 total_traversals=9189 buffer_exploded=1 load_exceeded_capacity=0
Edge (11 -> 9) dst_input_port=3 max_buffer_ratio=1 buffer_over_90_fraction=0.0423965 buffer_full_fraction=0.0423965 max_full_streak=6 edge_capacity=0.222222 max_edge_load=0.181 max_edge_utilization=0.8145 total_traversals=6115 buffer_exploded=1 load_exceeded_capacity=0
Edge (11 -> 10) dst_input_port=3 max_buffer_ratio=1 buffer_over_90_fraction=0.0373696 buffer_full_fraction=0.0373696 max_full_streak=6 edge_capacity=0.222222 max_edge_load=0.18 max_edge_utilization=0.81 total_traversals=6119 buffer_exploded=1 load_exceeded_capacity=0
Edge (11 -> 12) dst_input_port=4 max_buffer_ratio=1 buffer_over_90_fraction=0.0593901 buffer_full_fraction=0.0593901 max_full_streak=6 edge_capacity=0.222222 max_edge_load=0.18 max_edge_utilization=0.81 total_traversals=6131 buffer_exploded=1 load_exceeded_capacity=0
Edge (11 -> 13) dst_input_port=4 max_buffer_ratio=1 buffer_over_90_fraction=0.0301514 buffer_full_fraction=0.0301514 max_full_streak=6 edge_capacity=0.222222 max_edge_load=0.18 max_edge_utilization=0.81 total_traversals=6104 buffer_exploded=1 load_exceeded_capacity=0
Edge (11 -> 14) dst_input_port=4 max_buffer_ratio=1 buffer_over_90_fraction=0.030353 buffer_full_fraction=0.030353 max_full_streak=6 edge_capacity=0.222222 max_edge_load=0.18 max_edge_utilization=0.81 total_traversals=6107 buffer_exploded=1 load_exceeded_capacity=0
Edge (11 -> 15) dst_input_port=4 max_buffer_ratio=1 buffer_over_90_fraction=0.0531084 buffer_full_fraction=0.0531084 max_full_streak=5 edge_capacity=0.222222 max_edge_load=0.179 max_edge_utilization=0.8055 total_traversals=6132 buffer_exploded=1 load_exceeded_capacity=0
Edge (11 -> 16) dst_input_port=4 max_buffer_ratio=1 buffer_over_90_fraction=0.038672 buffer_full_fraction=0.038672 max_full_streak=5 edge_capacity=0.222222 max_edge_load=0.18 max_edge_utilization=0.81 total_traversals=6103 buffer_exploded=1 load_exceeded_capacity=0
Edge (11 -> 17) dst_input_port=4 max_buffer_ratio=1 buffer_over_90_fraction=0.0542817 buffer_full_fraction=0.0542817 max_full_streak=6 edge_capacity=0.222222 max_edge_load=0.179 max_edge_utilization=0.8055 total_traversals=6116 buffer_exploded=1 load_exceeded_capacity=0
Edge (11 -> 29) dst_input_port=0 max_buffer_ratio=1 buffer_over_90_fraction=0.000701681 buffer_full_fraction=0.000701681 max_full_streak=1 edge_capacity=1 max_edge_load=0.271 max_edge_utilization=0.271 total_traversals=9204 buffer_exploded=1 load_exceeded_capacity=0
Edge (12 -> 3) dst_input_port=0 max_buffer_ratio=1 buffer_over_90_fraction=0.000157884 buffer_full_fraction=0.000157884 max_full_streak=1 edge_capacity=1 max_edge_load=0.269 max_edge_utilization=0.269 total_traversals=9189 buffer_exploded=1 load_exceeded_capacity=0
Edge (12 -> 9) dst_input_port=4 max_buffer_ratio=1 buffer_over_90_fraction=0.0304088 buffer_full_fraction=0.0304088 max_full_streak=7 edge_capacity=0.222222 max_edge_load=0.183 max_edge_utilization=0.8235 total_traversals=6150 buffer_exploded=1 load_exceeded_capacity=0
Edge (12 -> 10) dst_input_port=4 max_buffer_ratio=1 buffer_over_90_fraction=0.0490728 buffer_full_fraction=0.0490728 max_full_streak=6 edge_capacity=0.222222 max_edge_load=0.18 max_edge_utilization=0.81 total_traversals=6155 buffer_exploded=1 load_exceeded_capacity=0
Edge (12 -> 11) dst_input_port=4 max_buffer_ratio=1 buffer_over_90_fraction=0.0509613 buffer_full_fraction=0.0509613 max_full_streak=8 edge_capacity=0.222222 max_edge_load=0.18 max_edge_utilization=0.81 total_traversals=6158 buffer_exploded=1 load_exceeded_capacity=0
Edge (12 -> 13) dst_input_port=5 max_buffer_ratio=1 buffer_over_90_fraction=0.0448018 buffer_full_fraction=0.0448018 max_full_streak=6 edge_capacity=0.222222 max_edge_load=0.181 max_edge_utilization=0.8145 total_traversals=6139 buffer_exploded=1 load_exceeded_capacity=0
Edge (12 -> 14) dst_input_port=5 max_buffer_ratio=1 buffer_over_90_fraction=0.045955 buffer_full_fraction=0.045955 max_full_streak=4 edge_capacity=0.222222 max_edge_load=0.179 max_edge_utilization=0.8055 total_traversals=6142 buffer_exploded=1 load_exceeded_capacity=0
Edge (12 -> 15) dst_input_port=5 max_buffer_ratio=1 buffer_over_90_fraction=0.0507328 buffer_full_fraction=0.0507328 max_full_streak=7 edge_capacity=0.222222 max_edge_load=0.182 max_edge_utilization=0.819 total_traversals=6168 buffer_exploded=1 load_exceeded_capacity=0
Edge (12 -> 16) dst_input_port=5 max_buffer_ratio=1 buffer_over_90_fraction=0.0268976 buffer_full_fraction=0.0268976 max_full_streak=6 edge_capacity=0.222222 max_edge_load=0.181 max_edge_utilization=0.8145 total_traversals=6137 buffer_exploded=1 load_exceeded_capacity=0
Edge (12 -> 17) dst_input_port=5 max_buffer_ratio=1 buffer_over_90_fraction=0.0532697 buffer_full_fraction=0.0532697 max_full_streak=7 edge_capacity=0.222222 max_edge_load=0.181 max_edge_utilization=0.8145 total_traversals=6151 buffer_exploded=1 load_exceeded_capacity=0
Edge (12 -> 30) dst_input_port=0 max_buffer_ratio=1 buffer_over_90_fraction=0.000298261 buffer_full_fraction=0.000298261 max_full_streak=1 edge_capacity=1 max_edge_load=0.272 max_edge_utilization=0.272 total_traversals=9204 buffer_exploded=1 load_exceeded_capacity=0
Edge (13 -> 4) dst_input_port=0 max_buffer_ratio=1 buffer_over_90_fraction=0.000929825 buffer_full_fraction=0.000929825 max_full_streak=1 edge_capacity=1 max_edge_load=0.269 max_edge_utilization=0.269 total_traversals=9189 buffer_exploded=1 load_exceeded_capacity=0
Edge (13 -> 9) dst_input_port=5 max_buffer_ratio=1 buffer_over_90_fraction=0.0629187 buffer_full_fraction=0.0629187 max_full_streak=5 edge_capacity=0.222222 max_edge_load=0.181 max_edge_utilization=0.8145 total_traversals=6127 buffer_exploded=1 load_exceeded_capacity=0
Edge (13 -> 10) dst_input_port=5 max_buffer_ratio=1 buffer_over_90_fraction=0.040773 buffer_full_fraction=0.040773 max_full_streak=6 edge_capacity=0.222222 max_edge_load=0.18 max_edge_utilization=0.81 total_traversals=6131 buffer_exploded=1 load_exceeded_capacity=0
Edge (13 -> 11) dst_input_port=5 max_buffer_ratio=1 buffer_over_90_fraction=0.0506227 buffer_full_fraction=0.0506227 max_full_streak=7 edge_capacity=0.222222 max_edge_load=0.181 max_edge_utilization=0.8145 total_traversals=6134 buffer_exploded=1 load_exceeded_capacity=0
Edge (13 -> 12) dst_input_port=5 max_buffer_ratio=1 buffer_over_90_fraction=0.0295784 buffer_full_fraction=0.0295784 max_full_streak=6 edge_capacity=0.222222 max_edge_load=0.182 max_edge_utilization=0.819 total_traversals=6143 buffer_exploded=1 load_exceeded_capacity=0
Edge (13 -> 14) dst_input_port=6 max_buffer_ratio=1 buffer_over_90_fraction=0.0488567 buffer_full_fraction=0.0488567 max_full_streak=5 edge_capacity=0.222222 max_edge_load=0.18 max_edge_utilization=0.81 total_traversals=6118 buffer_exploded=1 load_exceeded_capacity=0
Edge (13 -> 15) dst_input_port=6 max_buffer_ratio=1 buffer_over_90_fraction=0.0409073 buffer_full_fraction=0.0409073 max_full_streak=5 edge_capacity=0.222222 max_edge_load=0.18 max_edge_utilization=0.81 total_traversals=6143 buffer_exploded=1 load_exceeded_capacity=0
Edge (13 -> 16) dst_input_port=6 max_buffer_ratio=1 buffer_over_90_fraction=0.0251962 buffer_full_fraction=0.0251962 max_full_streak=5 edge_capacity=0.222222 max_edge_load=0.182 max_edge_utilization=0.819 total_traversals=6114 buffer_exploded=1 load_exceeded_capacity=0
Edge (13 -> 17) dst_input_port=6 max_buffer_ratio=1 buffer_over_90_fraction=0.0534158 buffer_full_fraction=0.0534158 max_full_streak=6 edge_capacity=0.222222 max_edge_load=0.18 max_edge_utilization=0.81 total_traversals=6128 buffer_exploded=1 load_exceeded_capacity=0
Edge (13 -> 31) dst_input_port=0 max_buffer_ratio=1 buffer_over_90_fraction=0.000912841 buffer_full_fraction=0.000912841 max_full_streak=2 edge_capacity=1 max_edge_load=0.271 max_edge_utilization=0.271 total_traversals=9204 buffer_exploded=1 load_exceeded_capacity=0
Edge (14 -> 5) dst_input_port=0 max_buffer_ratio=1 buffer_over_90_fraction=0.00066683 buffer_full_fraction=0.00066683 max_full_streak=2 edge_capacity=1 max_edge_load=0.269 max_edge_utilization=0.269 total_traversals=9189 buffer_exploded=1 load_exceeded_capacity=0
Edge (14 -> 9) dst_input_port=6 max_buffer_ratio=1 buffer_over_90_fraction=0.0699008 buffer_full_fraction=0.0699008 max_full_streak=6 edge_capacity=0.222222 max_edge_load=0.182 max_edge_utilization=0.819 total_traversals=6142 buffer_exploded=1 load_exceeded_capacity=0
Edge (14 -> 10) dst_input_port=6 max_buffer_ratio=1 buffer_over_90_fraction=0.0687321 buffer_full_fraction=0.0687321 max_full_streak=6 edge_capacity=0.222222 max_edge_load=0.18 max_edge_utilization=0.81 total_traversals=6146 buffer_exploded=1 load_exceeded_capacity=0
Edge (14 -> 11) dst_input_port=6 max_buffer_ratio=1 buffer_over_90_fraction=0.0542735 buffer_full_fraction=0.0542735 max_full_streak=9 edge_capacity=0.222222 max_edge_load=0.181 max_edge_utilization=0.8145 total_traversals=6150 buffer_exploded=1 load_exceeded_capacity=0
Edge (14 -> 12) dst_input_port=6 max_buffer_ratio=1 buffer_over_90_fraction=0.0534075 buffer_full_fraction=0.0534075 max_full_streak=5 edge_capacity=0.222222 max_edge_load=0.182 max_edge_utilization=0.819 total_traversals=6159 buffer_exploded=1 load_exceeded_capacity=0
Edge (14 -> 13) dst_input_port=6 max_buffer_ratio=1 buffer_over_90_fraction=0.0400028 buffer_full_fraction=0.0400028 max_full_streak=7 edge_capacity=0.222222 max_edge_load=0.183 max_edge_utilization=0.8235 total_traversals=6132 buffer_exploded=1 load_exceeded_capacity=0
Edge (14 -> 15) dst_input_port=7 max_buffer_ratio=1 buffer_over_90_fraction=0.0396523 buffer_full_fraction=0.0396523 max_full_streak=6 edge_capacity=0.222222 max_edge_load=0.182 max_edge_utilization=0.819 total_traversals=6159 buffer_exploded=1 load_exceeded_capacity=0
Edge (14 -> 16) dst_input_port=7 max_buffer_ratio=1 buffer_over_90_fraction=0.0546259 buffer_full_fraction=0.0546259 max_full_streak=7 edge_capacity=0.222222 max_edge_load=0.181 max_edge_utilization=0.8145 total_traversals=6130 buffer_exploded=1 load_exceeded_capacity=0
Edge (14 -> 17) dst_input_port=7 max_buffer_ratio=1 buffer_over_90_fraction=0.0431284 buffer_full_fraction=0.0431284 max_full_streak=4 edge_capacity=0.222222 max_edge_load=0.181 max_edge_utilization=0.8145 total_traversals=6143 buffer_exploded=1 load_exceeded_capacity=0
Edge (14 -> 32) dst_input_port=0 max_buffer_ratio=1 buffer_over_90_fraction=0.00196705 buffer_full_fraction=0.00196705 max_full_streak=1 edge_capacity=1 max_edge_load=0.272 max_edge_utilization=0.272 total_traversals=9204 buffer_exploded=1 load_exceeded_capacity=0
Edge (15 -> 6) dst_input_port=0 max_buffer_ratio=1 buffer_over_90_fraction=7.02482e-05 buffer_full_fraction=7.02482e-05 max_full_streak=1 edge_capacity=1 max_edge_load=0.27 max_edge_utilization=0.27 total_traversals=9189 buffer_exploded=1 load_exceeded_capacity=0
Edge (15 -> 9) dst_input_port=7 max_buffer_ratio=1 buffer_over_90_fraction=0.0433731 buffer_full_fraction=0.0433731 max_full_streak=6 edge_capacity=0.222222 max_edge_load=0.183 max_edge_utilization=0.8235 total_traversals=6133 buffer_exploded=1 load_exceeded_capacity=0
Edge (15 -> 10) dst_input_port=7 max_buffer_ratio=1 buffer_over_90_fraction=0.0474103 buffer_full_fraction=0.0474103 max_full_streak=5 edge_capacity=0.222222 max_edge_load=0.18 max_edge_utilization=0.81 total_traversals=6136 buffer_exploded=1 load_exceeded_capacity=0
Edge (15 -> 11) dst_input_port=7 max_buffer_ratio=1 buffer_over_90_fraction=0.0509215 buffer_full_fraction=0.0509215 max_full_streak=4 edge_capacity=0.222222 max_edge_load=0.18 max_edge_utilization=0.81 total_traversals=6140 buffer_exploded=1 load_exceeded_capacity=0
Edge (15 -> 12) dst_input_port=7 max_buffer_ratio=1 buffer_over_90_fraction=0.0487736 buffer_full_fraction=0.0487736 max_full_streak=5 edge_capacity=0.222222 max_edge_load=0.183 max_edge_utilization=0.8235 total_traversals=6149 buffer_exploded=1 load_exceeded_capacity=0
Edge (15 -> 13) dst_input_port=7 max_buffer_ratio=1 buffer_over_90_fraction=0.0180542 buffer_full_fraction=0.0180542 max_full_streak=6 edge_capacity=0.222222 max_edge_load=0.183 max_edge_utilization=0.8235 total_traversals=6122 buffer_exploded=1 load_exceeded_capacity=0
Edge (15 -> 14) dst_input_port=7 max_buffer_ratio=1 buffer_over_90_fraction=0.0427298 buffer_full_fraction=0.0427298 max_full_streak=6 edge_capacity=0.222222 max_edge_load=0.18 max_edge_utilization=0.81 total_traversals=6124 buffer_exploded=1 load_exceeded_capacity=0
Edge (15 -> 16) dst_input_port=8 max_buffer_ratio=1 buffer_over_90_fraction=0.0515399 buffer_full_fraction=0.0515399 max_full_streak=7 edge_capacity=0.222222 max_edge_load=0.182 max_edge_utilization=0.819 total_traversals=6120 buffer_exploded=1 load_exceeded_capacity=0
Edge (15 -> 17) dst_input_port=8 max_buffer_ratio=1 buffer_over_90_fraction=0.0425924 buffer_full_fraction=0.0425924 max_full_streak=4 edge_capacity=0.222222 max_edge_load=0.182 max_edge_utilization=0.819 total_traversals=6133 buffer_exploded=1 load_exceeded_capacity=0
Edge (15 -> 33) dst_input_port=0 max_buffer_ratio=1 buffer_over_90_fraction=0.000105431 buffer_full_fraction=0.000105431 max_full_streak=1 edge_capacity=1 max_edge_load=0.272 max_edge_utilization=0.272 total_traversals=9204 buffer_exploded=1 load_exceeded_capacity=0
Edge (16 -> 7) dst_input_port=0 max_buffer_ratio=1 buffer_over_90_fraction=0.000878272 buffer_full_fraction=0.000878272 max_full_streak=1 edge_capacity=1 max_edge_load=0.269 max_edge_utilization=0.269 total_traversals=9189 buffer_exploded=1 load_exceeded_capacity=0
Edge (16 -> 9) dst_input_port=8 max_buffer_ratio=1 buffer_over_90_fraction=0.0611937 buffer_full_fraction=0.0611937 max_full_streak=6 edge_capacity=0.222222 max_edge_load=0.182 max_edge_utilization=0.819 total_traversals=6141 buffer_exploded=1 load_exceeded_capacity=0
Edge (16 -> 10) dst_input_port=8 max_buffer_ratio=1 buffer_over_90_fraction=0.0408618 buffer_full_fraction=0.0408618 max_full_streak=5 edge_capacity=0.222222 max_edge_load=0.182 max_edge_utilization=0.819 total_traversals=6145 buffer_exploded=1 load_exceeded_capacity=0
Edge (16 -> 11) dst_input_port=8 max_buffer_ratio=1 buffer_over_90_fraction=0.0195521 buffer_full_fraction=0.0195521 max_full_streak=5 edge_capacity=0.222222 max_edge_load=0.181 max_edge_utilization=0.8145 total_traversals=6148 buffer_exploded=1 load_exceeded_capacity=0
Edge (16 -> 12) dst_input_port=8 max_buffer_ratio=1 buffer_over_90_fraction=0.0667557 buffer_full_fraction=0.0667557 max_full_streak=5 edge_capacity=0.222222 max_edge_load=0.181 max_edge_utilization=0.8145 total_traversals=6157 buffer_exploded=1 load_exceeded_capacity=0
Edge (16 -> 13) dst_input_port=8 max_buffer_ratio=1 buffer_over_90_fraction=0.0415013 buffer_full_fraction=0.0415013 max_full_streak=7 edge_capacity=0.222222 max_edge_load=0.181 max_edge_utilization=0.8145 total_traversals=6130 buffer_exploded=1 load_exceeded_capacity=0
Edge (16 -> 14) dst_input_port=8 max_buffer_ratio=1 buffer_over_90_fraction=0.0462314 buffer_full_fraction=0.0462314 max_full_streak=6 edge_capacity=0.222222 max_edge_load=0.183 max_edge_utilization=0.8235 total_traversals=6132 buffer_exploded=1 load_exceeded_capacity=0
Edge (16 -> 15) dst_input_port=8 max_buffer_ratio=1 buffer_over_90_fraction=0.0770744 buffer_full_fraction=0.0770744 max_full_streak=6 edge_capacity=0.222222 max_edge_load=0.182 max_edge_utilization=0.819 total_traversals=6157 buffer_exploded=1 load_exceeded_capacity=0
Edge (16 -> 17) dst_input_port=9 max_buffer_ratio=1 buffer_over_90_fraction=0.052241 buffer_full_fraction=0.052241 max_full_streak=5 edge_capacity=0.222222 max_edge_load=0.182 max_edge_utilization=0.819 total_traversals=6141 buffer_exploded=1 load_exceeded_capacity=0
Edge (16 -> 34) dst_input_port=0 max_buffer_ratio=1 buffer_over_90_fraction=0.000650355 buffer_full_fraction=0.000650355 max_full_streak=1 edge_capacity=1 max_edge_load=0.272 max_edge_utilization=0.272 total_traversals=9204 buffer_exploded=1 load_exceeded_capacity=0
Edge (17 -> 8) dst_input_port=0 max_buffer_ratio=1 buffer_over_90_fraction=0.000931148 buffer_full_fraction=0.000931148 max_full_streak=2 edge_capacity=1 max_edge_load=0.269 max_edge_utilization=0.269 total_traversals=9188 buffer_exploded=1 load_exceeded_capacity=0
Edge (17 -> 9) dst_input_port=9 max_buffer_ratio=1 buffer_over_90_fraction=0.0489866 buffer_full_fraction=0.0489866 max_full_streak=5 edge_capacity=0.222222 max_edge_load=0.182 max_edge_utilization=0.819 total_traversals=6132 buffer_exploded=1 load_exceeded_capacity=0
Edge (17 -> 10) dst_input_port=9 max_buffer_ratio=1 buffer_over_90_fraction=0.0321755 buffer_full_fraction=0.0321755 max_full_streak=5 edge_capacity=0.222222 max_edge_load=0.181 max_edge_utilization=0.8145 total_traversals=6135 buffer_exploded=1 load_exceeded_capacity=0
Edge (17 -> 11) dst_input_port=9 max_buffer_ratio=1 buffer_over_90_fraction=0.0375307 buffer_full_fraction=0.0375307 max_full_streak=5 edge_capacity=0.222222 max_edge_load=0.181 max_edge_utilization=0.8145 total_traversals=6138 buffer_exploded=1 load_exceeded_capacity=0
Edge (17 -> 12) dst_input_port=9 max_buffer_ratio=1 buffer_over_90_fraction=0.0674642 buffer_full_fraction=0.0674642 max_full_streak=5 edge_capacity=0.222222 max_edge_load=0.183 max_edge_utilization=0.8235 total_traversals=6148 buffer_exploded=1 load_exceeded_capacity=0
Edge (17 -> 13) dst_input_port=9 max_buffer_ratio=1 buffer_over_90_fraction=0.0469616 buffer_full_fraction=0.0469616 max_full_streak=7 edge_capacity=0.222222 max_edge_load=0.184 max_edge_utilization=0.828 total_traversals=6120 buffer_exploded=1 load_exceeded_capacity=0
Edge (17 -> 14) dst_input_port=9 max_buffer_ratio=1 buffer_over_90_fraction=0.0220039 buffer_full_fraction=0.0220039 max_full_streak=6 edge_capacity=0.222222 max_edge_load=0.182 max_edge_utilization=0.819 total_traversals=6123 buffer_exploded=1 load_exceeded_capacity=0
Edge (17 -> 15) dst_input_port=9 max_buffer_ratio=1 buffer_over_90_fraction=0.0542638 buffer_full_fraction=0.0542638 max_full_streak=6 edge_capacity=0.222222 max_edge_load=0.18 max_edge_utilization=0.81 total_traversals=6148 buffer_exploded=1 load_exceeded_capacity=0
Edge (17 -> 16) dst_input_port=9 max_buffer_ratio=1 buffer_over_90_fraction=0.00989038 buffer_full_fraction=0.00989038 max_full_streak=8 edge_capacity=0.222222 max_edge_load=0.182 max_edge_utilization=0.819 total_traversals=6119 buffer_exploded=1 load_exceeded_capacity=0
Edge (17 -> 35) dst_input_port=0 max_buffer_ratio=1 buffer_over_90_fraction=0.000668144 buffer_full_fraction=0.000668144 max_full_streak=1 edge_capacity=1 max_edge_load=0.272 max_edge_utilization=0.272 total_traversals=9204 buffer_exploded=1 load_exceeded_capacity=0
Edge (18 -> 0) dst_input_port=1 max_buffer_ratio=1 buffer_over_90_fraction=0.00070125 buffer_full_fraction=0.00070125 max_full_streak=1 edge_capacity=1 max_edge_load=0.271 max_edge_utilization=0.271 total_traversals=9205 buffer_exploded=1 load_exceeded_capacity=0
Edge (18 -> 19) dst_input_port=2 max_buffer_ratio=1 buffer_over_90_fraction=0.0499921 buffer_full_fraction=0.0499921 max_full_streak=7 edge_capacity=0.222222 max_edge_load=0.183 max_edge_utilization=0.8235 total_traversals=6158 buffer_exploded=1 load_exceeded_capacity=0
Edge (18 -> 20) dst_input_port=2 max_buffer_ratio=1 buffer_over_90_fraction=0.0425685 buffer_full_fraction=0.0425685 max_full_streak=5 edge_capacity=0.222222 max_edge_load=0.183 max_edge_utilization=0.8235 total_traversals=6160 buffer_exploded=1 load_exceeded_capacity=0
Edge (18 -> 21) dst_input_port=2 max_buffer_ratio=1 buffer_over_90_fraction=0.00908055 buffer_full_fraction=0.00908055 max_full_streak=5 edge_capacity=0.222222 max_edge_load=0.185 max_edge_utilization=0.8325 total_traversals=6160 buffer_exploded=1 load_exceeded_capacity=0
Edge (18 -> 22) dst_input_port=2 max_buffer_ratio=1 buffer_over_90_fraction=0.0599642 buffer_full_fraction=0.0599642 max_full_streak=5 edge_capacity=0.222222 max_edge_load=0.183 max_edge_utilization=0.8235 total_traversals=6144 buffer_exploded=1 load_exceeded_capacity=0
Edge (18 -> 23) dst_input_port=2 max_buffer_ratio=1 buffer_over_90_fraction=0.0164808 buffer_full_fraction=0.0164808 max_full_streak=5 edge_capacity=0.222222 max_edge_load=0.18 max_edge_utilization=0.81 total_traversals=6148 buffer_exploded=1 load_exceeded_capacity=0
Edge (18 -> 24) dst_input_port=2 max_buffer_ratio=1 buffer_over_90_fraction=0.0289107 buffer_full_fraction=0.0289107 max_full_streak=6 edge_capacity=0.222222 max_edge_load=0.18 max_edge_utilization=0.81 total_traversals=6133 buffer_exploded=1 load_exceeded_capacity=0
Edge (18 -> 25) dst_input_port=2 max_buffer_ratio=1 buffer_over_90_fraction=0.046112 buffer_full_fraction=0.046112 max_full_streak=5 edge_capacity=0.222222 max_edge_load=0.185 max_edge_utilization=0.8325 total_traversals=6148 buffer_exploded=1 load_exceeded_capacity=0
Edge (18 -> 26) dst_input_port=2 max_buffer_ratio=1 buffer_over_90_fraction=0.0207822 buffer_full_fraction=0.0207822 max_full_streak=5 edge_capacity=0.222222 max_edge_load=0.181 max_edge_utilization=0.8145 total_traversals=6152 buffer_exploded=1 load_exceeded_capacity=0
Edge (18 -> 27) dst_input_port=1 max_buffer_ratio=1 buffer_over_90_fraction=0.000613583 buffer_full_fraction=0.000613583 max_full_streak=2 edge_capacity=1 max_edge_load=0.271 max_edge_utilization=0.271 total_traversals=9184 buffer_exploded=1 load_exceeded_capacity=0
Edge (19 -> 1) dst_input_port=1 max_buffer_ratio=1 buffer_over_90_fraction=0.000859107 buffer_full_fraction=0.000859107 max_full_streak=1 edge_capacity=1 max_edge_load=0.27 max_edge_utilization=0.27 total_traversals=9205 buffer_exploded=1 load_exceeded_capacity=0
Edge (19 -> 18) dst_input_port=2 max_buffer_ratio=1 buffer_over_90_fraction=0.0563388 buffer_full_fraction=0.0563388 max_full_streak=7 edge_capacity=0.222222 max_edge_load=0.18 max_edge_utilization=0.81 total_traversals=6135 buffer_exploded=1 load_exceeded_capacity=0
Edge (19 -> 20) dst_input_port=3 max_buffer_ratio=1 buffer_over_90_fraction=0.0378598 buffer_full_fraction=0.0378598 max_full_streak=4 edge_capacity=0.222222 max_edge_load=0.181 max_edge_utilization=0.8145 total_traversals=6150 buffer_exploded=1 load_exceeded_capacity=0
Edge (19 -> 21) dst_input_port=3 max_buffer_ratio=1 buffer_over_90_fraction=0.0500658 buffer_full_fraction=0.0500658 max_full_streak=5 edge_capacity=0.222222 max_edge_load=0.181 max_edge_utilization=0.8145 total_traversals=6148 buffer_exploded=1 load_exceeded_capacity=0
Edge (19 -> 22) dst_input_port=3 max_buffer_ratio=1 buffer_over_90_fraction=0.0378636 buffer_full_fraction=0.0378636 max_full_streak=7 edge_capacity=0.222222 max_edge_load=0.181 max_edge_utilization=0.8145 total_traversals=6134 buffer_exploded=1 load_exceeded_capacity=0
Edge (19 -> 23) dst_input_port=3 max_buffer_ratio=1 buffer_over_90_fraction=0.0579301 buffer_full_fraction=0.0579301 max_full_streak=5 edge_capacity=0.222222 max_edge_load=0.181 max_edge_utilization=0.8145 total_traversals=6137 buffer_exploded=1 load_exceeded_capacity=0
Edge (19 -> 24) dst_input_port=3 max_buffer_ratio=1 buffer_over_90_fraction=0.043268 buffer_full_fraction=0.043268 max_full_streak=6 edge_capacity=0.222222 max_edge_load=0.18 max_edge_utilization=0.81 total_traversals=6123 buffer_exploded=1 load_exceeded_capacity=0
Edge (19 -> 25) dst_input_port=3 max_buffer_ratio=1 buffer_over_90_fraction=0.0633187 buffer_full_fraction=0.0633187 max_full_streak=5 edge_capacity=0.222222 max_edge_load=0.181 max_edge_utilization=0.8145 total_traversals=6137 buffer_exploded=1 load_exceeded_capacity=0
Edge (19 -> 26) dst_input_port=3 max_buffer_ratio=1 buffer_over_90_fraction=0.0525827 buffer_full_fraction=0.0525827 max_full_streak=5 edge_capacity=0.222222 max_edge_load=0.183 max_edge_utilization=0.8235 total_traversals=6141 buffer_exploded=1 load_exceeded_capacity=0
Edge (19 -> 28) dst_input_port=1 max_buffer_ratio=1 buffer_over_90_fraction=0.000631158 buffer_full_fraction=0.000631158 max_full_streak=1 edge_capacity=1 max_edge_load=0.272 max_edge_utilization=0.272 total_traversals=9184 buffer_exploded=1 load_exceeded_capacity=0
Edge (20 -> 2) dst_input_port=1 max_buffer_ratio=1 buffer_over_90_fraction=0.00105217 buffer_full_fraction=0.00105217 max_full_streak=2 edge_capacity=1 max_edge_load=0.27 max_edge_utilization=0.27 total_traversals=9205 buffer_exploded=1 load_exceeded_capacity=0
[...]
Edge (28 -> 34) dst_input_port=3 max_buffer_ratio=1 buffer_over_90_fraction=0.0560108 buffer_full_fraction=0.0560108 max_full_streak=5 edge_capacity=0.222222 max_edge_load=0.184 max_edge_utilization=0.828 total_traversals=6153 buffer_exploded=1 load_exceeded_capacity=0
Edge (28 -> 35) dst_input_port=3 max_buffer_ratio=1 buffer_over_90_fraction=0.0534067 buffer_full_fraction=0.0534067 max_full_streak=6 edge_capacity=0.222222 max_edge_load=0.183 max_edge_utilization=0.8235 total_traversals=6133 buffer_exploded=1 load_exceeded_capacity=0
Edge (29 -> 11) dst_input_port=1 max_buffer_ratio=1 buffer_over_90_fraction=0.00110478 buffer_full_fraction=0.00110478 max_full_streak=2 edge_capacity=1 max_edge_load=0.27 max_edge_utilization=0.27 total_traversals=9201 buffer_exploded=1 load_exceeded_capacity=0
Edge (29 -> 20) dst_input_port=1 max_buffer_ratio=1 buffer_over_90_fraction=0.00280633 buffer_full_fraction=0.00280633 max_full_streak=1 edge_capacity=1 max_edge_load=0.269 max_edge_utilization=0.269 total_traversals=9213 buffer_exploded=1 load_exceeded_capacity=0
Edge (29 -> 27) dst_input_port=3 max_buffer_ratio=1 buffer_over_90_fraction=0.0324486 buffer_full_fraction=0.0324486 max_full_streak=6 edge_capacity=0.222222 max_edge_load=0.18 max_edge_utilization=0.81 total_traversals=6126 buffer_exploded=1 load_exceeded_capacity=0
Edge (29 -> 28) dst_input_port=3 max_buffer_ratio=1 buffer_over_90_fraction=0.0352434 buffer_full_fraction=0.0352434 max_full_streak=5 edge_capacity=0.222222 max_edge_load=0.182 max_edge_utilization=0.819 total_traversals=6144 buffer_exploded=1 load_exceeded_capacity=0
Edge (29 -> 30) dst_input_port=4 max_buffer_ratio=1 buffer_over_90_fraction=0.0521294 buffer_full_fraction=0.0521294 max_full_streak=6 edge_capacity=0.222222 max_edge_load=0.181 max_edge_utilization=0.8145 total_traversals=6136 buffer_exploded=1 load_exceeded_capacity=0
Edge (29 -> 31) dst_input_port=4 max_buffer_ratio=1 buffer_over_90_fraction=0.044209 buffer_full_fraction=0.044209 max_full_streak=5 edge_capacity=0.222222 max_edge_load=0.181 max_edge_utilization=0.8145 total_traversals=6134 buffer_exploded=1 load_exceeded_capacity=0
Edge (29 -> 32) dst_input_port=4 max_buffer_ratio=1 buffer_over_90_fraction=0.0396505 buffer_full_fraction=0.0396505 max_full_streak=6 edge_capacity=0.222222 max_edge_load=0.181 max_edge_utilization=0.8145 total_traversals=6142 buffer_exploded=1 load_exceeded_capacity=0
Edge (29 -> 33) dst_input_port=4 max_buffer_ratio=1 buffer_over_90_fraction=0.0400899 buffer_full_fraction=0.0400899 max_full_streak=5 edge_capacity=0.222222 max_edge_load=0.179 max_edge_utilization=0.8055 total_traversals=6123 buffer_exploded=1 load_exceeded_capacity=0
Edge (29 -> 34) dst_input_port=4 max_buffer_ratio=1 buffer_over_90_fraction=0.0419534 buffer_full_fraction=0.0419534 max_full_streak=6 edge_capacity=0.222222 max_edge_load=0.181 max_edge_utilization=0.8145 total_traversals=6148 buffer_exploded=1 load_exceeded_capacity=0
Edge (29 -> 35) dst_input_port=4 max_buffer_ratio=1 buffer_over_90_fraction=0.034308 buffer_full_fraction=0.034308 max_full_streak=5 edge_capacity=0.222222 max_edge_load=0.181 max_edge_utilization=0.8145 total_traversals=6128 buffer_exploded=1 load_exceeded_capacity=0
Edge (30 -> 12) dst_input_port=1 max_buffer_ratio=1 buffer_over_90_fraction=0.000228038 buffer_full_fraction=0.000228038 max_full_streak=1 edge_capacity=1 max_edge_load=0.27 max_edge_utilization=0.27 total_traversals=9201 buffer_exploded=1 load_exceeded_capacity=0
Edge (30 -> 21) dst_input_port=1 max_buffer_ratio=1 buffer_over_90_fraction=0.000596732 buffer_full_fraction=0.000596732 max_full_streak=1 edge_capacity=1 max_edge_load=0.27 max_edge_utilization=0.27 total_traversals=9213 buffer_exploded=1 load_exceeded_capacity=0
Edge (30 -> 27) dst_input_port=4 max_buffer_ratio=1 buffer_over_90_fraction=0.0379722 buffer_full_fraction=0.0379722 max_full_streak=6 edge_capacity=0.222222 max_edge_load=0.181 max_edge_utilization=0.8145 total_traversals=6100 buffer_exploded=1 load_exceeded_capacity=0
Edge (30 -> 28) dst_input_port=4 max_buffer_ratio=1 buffer_over_90_fraction=0.0607693 buffer_full_fraction=0.0607693 max_full_streak=6 edge_capacity=0.222222 max_edge_load=0.181 max_edge_utilization=0.8145 total_traversals=6119 buffer_exploded=1 load_exceeded_capacity=0
Edge (30 -> 29) dst_input_port=4 max_buffer_ratio=1 buffer_over_90_fraction=0.0260461 buffer_full_fraction=0.0260461 max_full_streak=5 edge_capacity=0.222222 max_edge_load=0.182 max_edge_utilization=0.819 total_traversals=6109 buffer_exploded=1 load_exceeded_capacity=0
Edge (30 -> 31) dst_input_port=5 max_buffer_ratio=1 buffer_over_90_fraction=0.0474795 buffer_full_fraction=0.0474795 max_full_streak=6 edge_capacity=0.222222 max_edge_load=0.181 max_edge_utilization=0.8145 total_traversals=6109 buffer_exploded=1 load_exceeded_capacity=0
Edge (30 -> 32) dst_input_port=5 max_buffer_ratio=1 buffer_over_90_fraction=0.056868 buffer_full_fraction=0.056868 max_full_streak=9 edge_capacity=0.222222 max_edge_load=0.181 max_edge_utilization=0.8145 total_traversals=6117 buffer_exploded=1 load_exceeded_capacity=0
Edge (30 -> 33) dst_input_port=5 max_buffer_ratio=1 buffer_over_90_fraction=0.0295551 buffer_full_fraction=0.0295551 max_full_streak=5 edge_capacity=0.222222 max_edge_load=0.182 max_edge_utilization=0.819 total_traversals=6098 buffer_exploded=1 load_exceeded_capacity=0
Edge (30 -> 34) dst_input_port=5 max_buffer_ratio=1 buffer_over_90_fraction=0.0540128 buffer_full_fraction=0.0540128 max_full_streak=5 edge_capacity=0.222222 max_edge_load=0.182 max_edge_utilization=0.819 total_traversals=6122 buffer_exploded=1 load_exceeded_capacity=0
Edge (30 -> 35) dst_input_port=5 max_buffer_ratio=1 buffer_over_90_fraction=0.0582085 buffer_full_fraction=0.0582085 max_full_streak=5 edge_capacity=0.222222 max_edge_load=0.18 max_edge_utilization=0.81 total_traversals=6103 buffer_exploded=1 load_exceeded_capacity=0
Edge (31 -> 13) dst_input_port=1 max_buffer_ratio=1 buffer_over_90_fraction=0.000315828 buffer_full_fraction=0.000315828 max_full_streak=1 edge_capacity=1 max_edge_load=0.27 max_edge_utilization=0.27 total_traversals=9200 buffer_exploded=1 load_exceeded_capacity=0
Edge (31 -> 22) dst_input_port=1 max_buffer_ratio=1 buffer_over_90_fraction=0.00263347 buffer_full_fraction=0.00263347 max_full_streak=2 edge_capacity=1 max_edge_load=0.269 max_edge_utilization=0.269 total_traversals=9212 buffer_exploded=1 load_exceeded_capacity=0
Edge (31 -> 27) dst_input_port=5 max_buffer_ratio=1 buffer_over_90_fraction=0.0494898 buffer_full_fraction=0.0494898 max_full_streak=5 edge_capacity=0.222222 max_edge_load=0.18 max_edge_utilization=0.81 total_traversals=6116 buffer_exploded=1 load_exceeded_capacity=0
Edge (31 -> 28) dst_input_port=5 max_buffer_ratio=1 buffer_over_90_fraction=0.0485597 buffer_full_fraction=0.0485597 max_full_streak=5 edge_capacity=0.222222 max_edge_load=0.181 max_edge_utilization=0.8145 total_traversals=6135 buffer_exploded=1 load_exceeded_capacity=0
Edge (31 -> 29) dst_input_port=5 max_buffer_ratio=1 buffer_over_90_fraction=0.0286366 buffer_full_fraction=0.0286366 max_full_streak=6 edge_capacity=0.222222 max_edge_load=0.181 max_edge_utilization=0.8145 total_traversals=6125 buffer_exploded=1 load_exceeded_capacity=0
Edge (31 -> 30) dst_input_port=5 max_buffer_ratio=1 buffer_over_90_fraction=0.0518945 buffer_full_fraction=0.0518945 max_full_streak=5 edge_capacity=0.222222 max_edge_load=0.181 max_edge_utilization=0.8145 total_traversals=6127 buffer_exploded=1 load_exceeded_capacity=0
Edge (31 -> 32) dst_input_port=6 max_buffer_ratio=1 buffer_over_90_fraction=0.051604 buffer_full_fraction=0.051604 max_full_streak=7 edge_capacity=0.222222 max_edge_load=0.181 max_edge_utilization=0.8145 total_traversals=6133 buffer_exploded=1 load_exceeded_capacity=0
Edge (31 -> 33) dst_input_port=6 max_buffer_ratio=1 buffer_over_90_fraction=0.0232338 buffer_full_fraction=0.0232338 max_full_streak=5 edge_capacity=0.222222 max_edge_load=0.18 max_edge_utilization=0.81 total_traversals=6114 buffer_exploded=1 load_exceeded_capacity=0
Edge (31 -> 34) dst_input_port=6 max_buffer_ratio=1 buffer_over_90_fraction=0.038521 buffer_full_fraction=0.038521 max_full_streak=5 edge_capacity=0.222222 max_edge_load=0.182 max_edge_utilization=0.819 total_traversals=6139 buffer_exploded=1 load_exceeded_capacity=0
Edge (31 -> 35) dst_input_port=6 max_buffer_ratio=1 buffer_over_90_fraction=0.064807 buffer_full_fraction=0.064807 max_full_streak=6 edge_capacity=0.222222 max_edge_load=0.179 max_edge_utilization=0.8055 total_traversals=6120 buffer_exploded=1 load_exceeded_capacity=0
Edge (32 -> 14) dst_input_port=1 max_buffer_ratio=1 buffer_over_90_fraction=0.00145691 buffer_full_fraction=0.00145691 max_full_streak=2 edge_capacity=1 max_edge_load=0.27 max_edge_utilization=0.27 total_traversals=9200 buffer_exploded=1 load_exceeded_capacity=0
Edge (32 -> 23) dst_input_port=1 max_buffer_ratio=1 buffer_over_90_fraction=0.000860283 buffer_full_fraction=0.000860283 max_full_streak=1 edge_capacity=1 max_edge_load=0.269 max_edge_utilization=0.269 total_traversals=9212 buffer_exploded=1 load_exceeded_capacity=0
Edge (32 -> 27) dst_input_port=6 max_buffer_ratio=1 buffer_over_90_fraction=0.0768529 buffer_full_fraction=0.0768529 max_full_streak=6 edge_capacity=0.222222 max_edge_load=0.181 max_edge_utilization=0.8145 total_traversals=6110 buffer_exploded=1 load_exceeded_capacity=0
Edge (32 -> 28) dst_input_port=6 max_buffer_ratio=1 buffer_over_90_fraction=0.068977 buffer_full_fraction=0.068977 max_full_streak=5 edge_capacity=0.222222 max_edge_load=0.18 max_edge_utilization=0.81 total_traversals=6129 buffer_exploded=1 load_exceeded_capacity=0
Edge (32 -> 29) dst_input_port=6 max_buffer_ratio=1 buffer_over_90_fraction=0.0634358 buffer_full_fraction=0.0634358 max_full_streak=8 edge_capacity=0.222222 max_edge_load=0.179 max_edge_utilization=0.8055 total_traversals=6119 buffer_exploded=1 load_exceeded_capacity=0
Edge (32 -> 30) dst_input_port=6 max_buffer_ratio=1 buffer_over_90_fraction=0.0438846 buffer_full_fraction=0.0438846 max_full_streak=5 edge_capacity=0.222222 max_edge_load=0.181 max_edge_utilization=0.8145 total_traversals=6121 buffer_exploded=1 load_exceeded_capacity=0
Edge (32 -> 31) dst_input_port=6 max_buffer_ratio=1 buffer_over_90_fraction=0.0372712 buffer_full_fraction=0.0372712 max_full_streak=7 edge_capacity=0.222222 max_edge_load=0.18 max_edge_utilization=0.81 total_traversals=6118 buffer_exploded=1 load_exceeded_capacity=0
Edge (32 -> 33) dst_input_port=7 max_buffer_ratio=1 buffer_over_90_fraction=0.0579119 buffer_full_fraction=0.0579119 max_full_streak=5 edge_capacity=0.222222 max_edge_load=0.18 max_edge_utilization=0.81 total_traversals=6107 buffer_exploded=1 load_exceeded_capacity=0
Edge (32 -> 34) dst_input_port=7 max_buffer_ratio=1 buffer_over_90_fraction=0.0423906 buffer_full_fraction=0.0423906 max_full_streak=5 edge_capacity=0.222222 max_edge_load=0.182 max_edge_utilization=0.819 total_traversals=6132 buffer_exploded=1 load_exceeded_capacity=0
Edge (32 -> 35) dst_input_port=7 max_buffer_ratio=1 buffer_over_90_fraction=0.0441293 buffer_full_fraction=0.0441293 max_full_streak=6 edge_capacity=0.222222 max_edge_load=0.18 max_edge_utilization=0.81 total_traversals=6113 buffer_exploded=1 load_exceeded_capacity=0
Edge (33 -> 15) dst_input_port=1 max_buffer_ratio=1 buffer_over_90_fraction=0.000912873 buffer_full_fraction=0.000912873 max_full_streak=1 edge_capacity=1 max_edge_load=0.269 max_edge_utilization=0.269 total_traversals=9199 buffer_exploded=1 load_exceeded_capacity=0
Edge (33 -> 24) dst_input_port=1 max_buffer_ratio=1 buffer_over_90_fraction=0.00101842 buffer_full_fraction=0.00101842 max_full_streak=1 edge_capacity=1 max_edge_load=0.269 max_edge_utilization=0.269 total_traversals=9211 buffer_exploded=1 load_exceeded_capacity=0
Edge (33 -> 27) dst_input_port=7 max_buffer_ratio=1 buffer_over_90_fraction=0.0590401 buffer_full_fraction=0.0590401 max_full_streak=5 edge_capacity=0.222222 max_edge_load=0.181 max_edge_utilization=0.8145 total_traversals=6104 buffer_exploded=1 load_exceeded_capacity=0
Edge (33 -> 28) dst_input_port=7 max_buffer_ratio=1 buffer_over_90_fraction=0.0431366 buffer_full_fraction=0.0431366 max_full_streak=5 edge_capacity=0.222222 max_edge_load=0.181 max_edge_utilization=0.8145 total_traversals=6122 buffer_exploded=1 load_exceeded_capacity=0
Edge (33 -> 29) dst_input_port=7 max_buffer_ratio=1 buffer_over_90_fraction=0.0640306 buffer_full_fraction=0.0640306 max_full_streak=5 edge_capacity=0.222222 max_edge_load=0.181 max_edge_utilization=0.8145 total_traversals=6111 buffer_exploded=1 load_exceeded_capacity=0
Edge (33 -> 30) dst_input_port=7 max_buffer_ratio=1 buffer_over_90_fraction=0.0263597 buffer_full_fraction=0.0263597 max_full_streak=5 edge_capacity=0.222222 max_edge_load=0.181 max_edge_utilization=0.8145 total_traversals=6113 buffer_exploded=1 load_exceeded_capacity=0
Edge (33 -> 31) dst_input_port=7 max_buffer_ratio=1 buffer_over_90_fraction=0.0357193 buffer_full_fraction=0.0357193 max_full_streak=6 edge_capacity=0.222222 max_edge_load=0.181 max_edge_utilization=0.8145 total_traversals=6111 buffer_exploded=1 load_exceeded_capacity=0
Edge (33 -> 32) dst_input_port=7 max_buffer_ratio=1 buffer_over_90_fraction=0.016327 buffer_full_fraction=0.016327 max_full_streak=7 edge_capacity=0.222222 max_edge_load=0.181 max_edge_utilization=0.8145 total_traversals=6119 buffer_exploded=1 load_exceeded_capacity=0
Edge (33 -> 34) dst_input_port=8 max_buffer_ratio=1 buffer_over_90_fraction=0.0366982 buffer_full_fraction=0.0366982 max_full_streak=4 edge_capacity=0.222222 max_edge_load=0.184 max_edge_utilization=0.828 total_traversals=6125 buffer_exploded=1 load_exceeded_capacity=0
Edge (33 -> 35) dst_input_port=8 max_buffer_ratio=1 buffer_over_90_fraction=0.0452766 buffer_full_fraction=0.0452766 max_full_streak=5 edge_capacity=0.222222 max_edge_load=0.181 max_edge_utilization=0.8145 total_traversals=6106 buffer_exploded=1 load_exceeded_capacity=0
Edge (34 -> 16) dst_input_port=1 max_buffer_ratio=1 buffer_over_90_fraction=0.00114137 buffer_full_fraction=0.00114137 max_full_streak=1 edge_capacity=1 max_edge_load=0.27 max_edge_utilization=0.27 total_traversals=9199 buffer_exploded=1 load_exceeded_capacity=0
Edge (34 -> 25) dst_input_port=1 max_buffer_ratio=1 buffer_over_90_fraction=0.00137001 buffer_full_fraction=0.00137001 max_full_streak=2 edge_capacity=1 max_edge_load=0.269 max_edge_utilization=0.269 total_traversals=9211 buffer_exploded=1 load_exceeded_capacity=0
Edge (34 -> 27) dst_input_port=8 max_buffer_ratio=1 buffer_over_90_fraction=0.0507512 buffer_full_fraction=0.0507512 max_full_streak=5 edge_capacity=0.222222 max_edge_load=0.18 max_edge_utilization=0.81 total_traversals=6120 buffer_exploded=1 load_exceeded_capacity=0
Edge (34 -> 28) dst_input_port=8 max_buffer_ratio=1 buffer_over_90_fraction=0.0448831 buffer_full_fraction=0.0448831 max_full_streak=7 edge_capacity=0.222222 max_edge_load=0.182 max_edge_utilization=0.819 total_traversals=6139 buffer_exploded=1 load_exceeded_capacity=0
Edge (34 -> 29) dst_input_port=8 max_buffer_ratio=1 buffer_over_90_fraction=0.0528605 buffer_full_fraction=0.0528605 max_full_streak=5 edge_capacity=0.222222 max_edge_load=0.183 max_edge_utilization=0.8235 total_traversals=6128 buffer_exploded=1 load_exceeded_capacity=0
Edge (34 -> 30) dst_input_port=8 max_buffer_ratio=1 buffer_over_90_fraction=0.0233419 buffer_full_fraction=0.0233419 max_full_streak=5 edge_capacity=0.222222 max_edge_load=0.18 max_edge_utilization=0.81 total_traversals=6131 buffer_exploded=1 load_exceeded_capacity=0
Edge (34 -> 31) dst_input_port=8 max_buffer_ratio=1 buffer_over_90_fraction=0.0190826 buffer_full_fraction=0.0190826 max_full_streak=5 edge_capacity=0.222222 max_edge_load=0.18 max_edge_utilization=0.81 total_traversals=6128 buffer_exploded=1 load_exceeded_capacity=0
Edge (34 -> 32) dst_input_port=8 max_buffer_ratio=1 buffer_over_90_fraction=0.0345318 buffer_full_fraction=0.0345318 max_full_streak=6 edge_capacity=0.222222 max_edge_load=0.182 max_edge_utilization=0.819 total_traversals=6136 buffer_exploded=1 load_exceeded_capacity=0
Edge (34 -> 33) dst_input_port=8 max_buffer_ratio=1 buffer_over_90_fraction=0.0642788 buffer_full_fraction=0.0642788 max_full_streak=5 edge_capacity=0.222222 max_edge_load=0.18 max_edge_utilization=0.81 total_traversals=6116 buffer_exploded=1 load_exceeded_capacity=0
Edge (34 -> 35) dst_input_port=9 max_buffer_ratio=1 buffer_over_90_fraction=0.0352365 buffer_full_fraction=0.0352365 max_full_streak=5 edge_capacity=0.222222 max_edge_load=0.181 max_edge_utilization=0.8145 total_traversals=6122 buffer_exploded=1 load_exceeded_capacity=0
Edge (35 -> 17) dst_input_port=1 max_buffer_ratio=1 buffer_over_90_fraction=0.000158114 buffer_full_fraction=0.000158114 max_full_streak=1 edge_capacity=1 max_edge_load=0.269 max_edge_utilization=0.269 total_traversals=9198 buffer_exploded=1 load_exceeded_capacity=0
Edge (35 -> 26) dst_input_port=1 max_buffer_ratio=1 buffer_over_90_fraction=0.000843185 buffer_full_fraction=0.000843185 max_full_streak=1 edge_capacity=1 max_edge_load=0.269 max_edge_utilization=0.269 total_traversals=9211 buffer_exploded=1 load_exceeded_capacity=0
Edge (35 -> 27) dst_input_port=9 max_buffer_ratio=1 buffer_over_90_fraction=0.0654881 buffer_full_fraction=0.0654881 max_full_streak=6 edge_capacity=0.222222 max_edge_load=0.182 max_edge_utilization=0.819 total_traversals=6119 buffer_exploded=1 load_exceeded_capacity=0
Edge (35 -> 28) dst_input_port=9 max_buffer_ratio=1 buffer_over_90_fraction=0.0280121 buffer_full_fraction=0.0280121 max_full_streak=6 edge_capacity=0.222222 max_edge_load=0.181 max_edge_utilization=0.8145 total_traversals=6138 buffer_exploded=1 load_exceeded_capacity=0
Edge (35 -> 29) dst_input_port=9 max_buffer_ratio=1 buffer_over_90_fraction=0.0351711 buffer_full_fraction=0.0351711 max_full_streak=5 edge_capacity=0.222222 max_edge_load=0.181 max_edge_utilization=0.8145 total_traversals=6127 buffer_exploded=1 load_exceeded_capacity=0
Edge (35 -> 30) dst_input_port=9 max_buffer_ratio=1 buffer_over_90_fraction=0.049964 buffer_full_fraction=0.049964 max_full_streak=5 edge_capacity=0.222222 max_edge_load=0.183 max_edge_utilization=0.8235 total_traversals=6129 buffer_exploded=1 load_exceeded_capacity=0
Edge (35 -> 31) dst_input_port=9 max_buffer_ratio=1 buffer_over_90_fraction=0.0592049 buffer_full_fraction=0.0592049 max_full_streak=5 edge_capacity=0.222222 max_edge_load=0.18 max_edge_utilization=0.81 total_traversals=6128 buffer_exploded=1 load_exceeded_capacity=0
Edge (35 -> 32) dst_input_port=9 max_buffer_ratio=1 buffer_over_90_fraction=0.0546934 buffer_full_fraction=0.0546934 max_full_streak=6 edge_capacity=0.222222 max_edge_load=0.182 max_edge_utilization=0.819 total_traversals=6136 buffer_exploded=1 load_exceeded_capacity=0
Edge (35 -> 33) dst_input_port=9 max_buffer_ratio=1 buffer_over_90_fraction=0.0665132 buffer_full_fraction=0.0665132 max_full_streak=6 edge_capacity=0.222222 max_edge_load=0.182 max_edge_utilization=0.819 total_traversals=6115 buffer_exploded=1 load_exceeded_capacity=0
Edge (35 -> 34) dst_input_port=9 max_buffer_ratio=1 buffer_over_90_fraction=0.0431212 buffer_full_fraction=0.0431212 max_full_streak=7 edge_capacity=0.222222 max_edge_load=0.182 max_edge_utilization=0.819 total_traversals=6141 buffer_exploded=1 load_exceeded_capacity=0
Observed edge count = 360
Observed edge max buffer ratio = 1
Observed edge max load = 0.273
Observed edge max utilization = 0.8325
Observed edge avg over-0.9 buffer fraction = 0.0345134
Observed edge avg full-buffer fraction = 0.0345134
Observed edge max over-0.9 buffer fraction = 0.0770744
Observed edge max full-buffer fraction = 0.0770744
Observed edge worst full-buffer streak = 10
Observed edge exploded buffer count = 360
Observed edge exceeded capacity count = 0

