BEGIN Configuration File: D:\noc_huawei\noc\booksim2-noc_speedup_study\booksim2-noc_speedup_study\tests\data\results\dfm_n9_growth_scheduled_2overn_20260409\tmp_configs\dfm_hybrid_dr_dsl_s2201.config
num_vcs     = 24;
vc_buf_size = 16;
wait_for_tail_credit = 1;

vc_allocator = islip;
sw_allocator = islip;
alloc_iters  = 4;

credit_delay   = 2;
routing_delay  = 0;
vc_alloc_delay = 1;
sw_alloc_delay = 1;
st_final_delay = 1;

input_speedup     = 1;
output_speedup    = 1;
internal_speedup  = 1.0;

sim_type = latency;
latency_thres  = 100000.0;
sim_count      = 1;
queue_sample_period_cycles = 0;

topology = die_mesh_full;
dfm_tiles_per_die = 9;

dfm_hybrid_soft_threshold = 0.25;
dfm_hybrid_hard_threshold = 0.50;
dfm_hybrid_release_threshold = 0.18;
dfm_hybrid_congestion_alpha = 0.25;
dfm_hybrid_increase_step = 0.50;
dfm_hybrid_decrease_step = 0.06;
dfm_hybrid_capacity_guard_ratio = 0.98;
dfm_hybrid_rate_weight = 0.50;
dfm_hybrid_util_target = 0.98;
dfm_hybrid_util_gain = 0.60;
dfm_hybrid_epoch_cycles = 200;
dfm_hybrid_feedback_delay_per_hop = 1;

hybrid_edge_capacity = 1.0;
hybrid_stats_window_cycles = 1000;

packet_size = 1;
traffic = custom_perm;
custom_perm_array = {3,10,20,6,13,23,0,16,26,12,28,2,15,31,5,9,34,8,21,1,29,24,4,32,18,7,35,30,19,11,33,22,14,27,25,17};

injection_rate = 0.05;
dfm_hybrid_stats_window_cycles = 3000;
max_samples = 26;
scheduled_phase_cycles = {3000,3000,3000,3000,3000,3000,3000,3000,3000,3000,3000,3000,3000,3000,3000,3000,3000,3000};
sample_period = 3000;
routing_function = dfm_hybrid_dr_dsl;
warmup_periods = 2;
injection_process = scheduled;
scheduled_injection_rates = {0.05,0.1,0.15,0.2,0.25,0.3,0.35,0.4,0.45,0.5,0.55,0.6,0.65,0.7,0.75,0.8,0.8,0.8};
scheduled_default_phase_cycles = 3000;
perm_seed = 2201;
seed = 2201;

END Configuration File: D:\noc_huawei\noc\booksim2-noc_speedup_study\booksim2-noc_speedup_study\tests\data\results\dfm_n9_growth_scheduled_2overn_20260409\tmp_configs\dfm_hybrid_dr_dsl_s2201.config
Class 0:
Packet latency average = 10.2072
	minimum = 10
	maximum = 19
	95th percentile = 12.5
	99th percentile = 14.5
Network latency average = 10.2072
	minimum = 10
	maximum = 19
	95th percentile = 12.5
	99th percentile = 14.5
Slowest packet = 1129
Flit latency average = 10.2072
	minimum = 10
	maximum = 19
	95th percentile = 12.5
	99th percentile = 14.5
Slowest flit = 1129
Fragmentation average = 0
	minimum = 0
	maximum = 0
Injected packet rate average = 0.0499074
	minimum = 0.0433333 (at node 20)
	maximum = 0.0556667 (at node 30)
Accepted packet rate average = 0.0497037
	minimum = 0.0433333 (at node 29)
	maximum = 0.0553333 (at node 33)
Injected flit rate average = 0.0499074
	minimum = 0.0433333 (at node 20)
	maximum = 0.0556667 (at node 30)
Accepted flit rate average= 0.0497037
	minimum = 0.0433333 (at node 29)
	maximum = 0.0553333 (at node 33)
Injected packet length average = 1
Accepted packet length average = 1
Total in-flight flits = 22 (0 measured)
====== Peak Queue Occupancy Statistics (Absolute Max) ======
  Overall Max VC Occupancy = 1
  Overall Max Buffer Occupancy = 2
latency change    = 1
throughput change = 1
Class 0:
Packet latency average = 10.5103
	minimum = 10
	maximum = 28
	95th percentile = 14.5
	99th percentile = 18.5
Network latency average = 10.5103
	minimum = 10
	maximum = 28
	95th percentile = 14.5
	99th percentile = 18.5
Slowest packet = 5632
Flit latency average = 10.5103
	minimum = 10
	maximum = 28
	95th percentile = 14.5
	99th percentile = 18.5
Slowest flit = 5632
Fragmentation average = 0
	minimum = 0
	maximum = 0
Injected packet rate average = 0.0753009
	minimum = 0.0703333 (at node 20)
	maximum = 0.0818333 (at node 1)
Accepted packet rate average = 0.0751065
	minimum = 0.0701667 (at node 29)
	maximum = 0.0816667 (at node 10)
Injected flit rate average = 0.0753009
	minimum = 0.0703333 (at node 20)
	maximum = 0.0818333 (at node 1)
Accepted flit rate average= 0.0751065
	minimum = 0.0701667 (at node 29)
	maximum = 0.0816667 (at node 10)
Injected packet length average = 1
Accepted packet length average = 1
Total in-flight flits = 42 (0 measured)
====== Peak Queue Occupancy Statistics (Absolute Max) ======
  Overall Max VC Occupancy = 1
  Overall Max Buffer Occupancy = 2
latency change    = 0.0288451
throughput change = 0.338224
Warmed up ...Time used is 6000 cycles
Class 0:
Packet latency average = 11.6869
	minimum = 10
	maximum = 37
	95th percentile = 18.5
	99th percentile = 22.5
Network latency average = 11.6869
	minimum = 10
	maximum = 37
	95th percentile = 18.5
	99th percentile = 22.5
Slowest packet = 19639
Flit latency average = 11.6842
	minimum = 10
	maximum = 37
	95th percentile = 18.5
	99th percentile = 22.5
Slowest flit = 19639
Fragmentation average = 0
	minimum = 0
	maximum = 0
Injected packet rate average = 0.148981
	minimum = 0.134 (at node 4)
	maximum = 0.162333 (at node 0)
Accepted packet rate average = 0.148741
	minimum = 0.134 (at node 13)
	maximum = 0.162333 (at node 3)
Injected flit rate average = 0.148981
	minimum = 0.134 (at node 4)
	maximum = 0.162333 (at node 0)
Accepted flit rate average= 0.148741
	minimum = 0.134 (at node 13)
	maximum = 0.162333 (at node 3)
Injected packet length average = 1
Accepted packet length average = 1
Total in-flight flits = 68 (68 measured)
====== Peak Queue Occupancy Statistics (Absolute Max) ======
  Overall Max VC Occupancy = 1
  Overall Max Buffer Occupancy = 2
latency change    = 0.100672
throughput change = 0.495051
Class 0:
Packet latency average = 13.1983
	minimum = 10
	maximum = 38
	95th percentile = 19.5
	99th percentile = 22.5
Network latency average = 13.1983
	minimum = 10
	maximum = 38
	95th percentile = 19.5
	99th percentile = 22.5
Slowest packet = 33663
Flit latency average = 13.1955
	minimum = 10
	maximum = 38
	95th percentile = 19.5
	99th percentile = 22.5
Slowest flit = 33663
Fragmentation average = 0
	minimum = 0
	maximum = 0
Injected packet rate average = 0.173921
	minimum = 0.163167 (at node 25)
	maximum = 0.186333 (at node 27)
Accepted packet rate average = 0.173602
	minimum = 0.163333 (at node 7)
	maximum = 0.186167 (at node 30)
Injected flit rate average = 0.173921
	minimum = 0.163167 (at node 25)
	maximum = 0.186333 (at node 27)
Accepted flit rate average= 0.173602
	minimum = 0.163333 (at node 7)
	maximum = 0.186167 (at node 30)
Injected packet length average = 1
Accepted packet length average = 1
Total in-flight flits = 111 (111 measured)
====== Peak Queue Occupancy Statistics (Absolute Max) ======
  Overall Max VC Occupancy = 1
  Overall Max Buffer Occupancy = 3
latency change    = 0.114516
throughput change = 0.143208
Class 0:
Packet latency average = 14.5772
	minimum = 10
	maximum = 38
	95th percentile = 20.5
	99th percentile = 23.5
Network latency average = 14.5772
	minimum = 10
	maximum = 38
	95th percentile = 20.5
	99th percentile = 23.5
Slowest packet = 33663
Flit latency average = 14.5747
	minimum = 10
	maximum = 38
	95th percentile = 20.5
	99th percentile = 23.5
Slowest flit = 33663
Fragmentation average = 0
	minimum = 0
	maximum = 0
Injected packet rate average = 0.199321
	minimum = 0.192889 (at node 33)
	maximum = 0.207556 (at node 27)
Accepted packet rate average = 0.199025
	minimum = 0.192667 (at node 27)
	maximum = 0.207444 (at node 30)
Injected flit rate average = 0.199321
	minimum = 0.192889 (at node 33)
	maximum = 0.207556 (at node 27)
Accepted flit rate average= 0.199025
	minimum = 0.192667 (at node 27)
	maximum = 0.207444 (at node 30)
Injected packet length average = 1
Accepted packet length average = 1
Total in-flight flits = 138 (138 measured)
====== Peak Queue Occupancy Statistics (Absolute Max) ======
  Overall Max VC Occupancy = 1
  Overall Max Buffer Occupancy = 3
latency change    = 0.094594
throughput change = 0.127737
Class 0:
Packet latency average = 15.3074
	minimum = 10
	maximum = 38
	95th percentile = 21.5
	99th percentile = 23.5
Network latency average = 15.3074
	minimum = 10
	maximum = 38
	95th percentile = 21.5
	99th percentile = 23.5
Slowest packet = 33663
Flit latency average = 15.3054
	minimum = 10
	maximum = 38
	95th percentile = 21.5
	99th percentile = 23.5
Slowest flit = 33663
Fragmentation average = 0
	minimum = 0
	maximum = 0
Injected packet rate average = 0.224984
	minimum = 0.2185 (at node 33)
	maximum = 0.231417 (at node 8)
Accepted packet rate average = 0.224623
	minimum = 0.218167 (at node 27)
	maximum = 0.230833 (at node 26)
Injected flit rate average = 0.224984
	minimum = 0.2185 (at node 33)
	maximum = 0.231417 (at node 8)
Accepted flit rate average= 0.224623
	minimum = 0.218167 (at node 27)
	maximum = 0.230833 (at node 26)
Injected packet length average = 1
Accepted packet length average = 1
Total in-flight flits = 198 (198 measured)
====== Peak Queue Occupancy Statistics (Absolute Max) ======
  Overall Max VC Occupancy = 1
  Overall Max Buffer Occupancy = 3
latency change    = 0.0477054
throughput change = 0.11396
Class 0:
Packet latency average = 15.7638
	minimum = 10
	maximum = 38
	95th percentile = 22.5
	99th percentile = 24.5
Network latency average = 15.7638
	minimum = 10
	maximum = 38
	95th percentile = 22.5
	99th percentile = 24.5
Slowest packet = 33663
Flit latency average = 15.7622
	minimum = 10
	maximum = 38
	95th percentile = 22.5
	99th percentile = 24.5
Slowest flit = 33663
Fragmentation average = 0
	minimum = 0
	maximum = 0
Injected packet rate average = 0.250478
	minimum = 0.243533 (at node 15)
	maximum = 0.255867 (at node 8)
Accepted packet rate average = 0.250157
	minimum = 0.243267 (at node 9)
	maximum = 0.255333 (at node 26)
Injected flit rate average = 0.250478
	minimum = 0.243533 (at node 15)
	maximum = 0.255867 (at node 8)
Accepted flit rate average= 0.250157
	minimum = 0.243267 (at node 9)
	maximum = 0.255333 (at node 26)
Injected packet length average = 1
Accepted packet length average = 1
Total in-flight flits = 215 (215 measured)
====== Peak Queue Occupancy Statistics (Absolute Max) ======
  Overall Max VC Occupancy = 1
  Overall Max Buffer Occupancy = 3
latency change    = 0.028948
throughput change = 0.102075
Class 0:
Packet latency average = 16.0852
	minimum = 10
	maximum = 38
	95th percentile = 22.5
	99th percentile = 24.5
Network latency average = 16.0852
	minimum = 10
	maximum = 38
	95th percentile = 22.5
	99th percentile = 24.5
Slowest packet = 33663
Flit latency average = 16.0839
	minimum = 10
	maximum = 38
	95th percentile = 22.5
	99th percentile = 24.5
Slowest flit = 33663
Fragmentation average = 0
	minimum = 0
	maximum = 0
Injected packet rate average = 0.275457
	minimum = 0.266333 (at node 33)
	maximum = 0.281111 (at node 17)
Accepted packet rate average = 0.275157
	minimum = 0.266111 (at node 27)
	maximum = 0.280722 (at node 8)
Injected flit rate average = 0.275457
	minimum = 0.266333 (at node 33)
	maximum = 0.281111 (at node 17)
Accepted flit rate average= 0.275157
	minimum = 0.266111 (at node 27)
	maximum = 0.280722 (at node 8)
Injected packet length average = 1
Accepted packet length average = 1
Total in-flight flits = 236 (236 measured)
====== Peak Queue Occupancy Statistics (Absolute Max) ======
  Overall Max VC Occupancy = 1
  Overall Max Buffer Occupancy = 3
latency change    = 0.0199794
throughput change = 0.0908571
Class 0:
Packet latency average = 16.3365
	minimum = 10
	maximum = 38
	95th percentile = 22.5
	99th percentile = 24.5
Network latency average = 16.3365
	minimum = 10
	maximum = 38
	95th percentile = 22.5
	99th percentile = 24.5
Slowest packet = 33663
Flit latency average = 16.3355
	minimum = 10
	maximum = 38
	95th percentile = 22.5
	99th percentile = 24.5
Slowest flit = 33663
Fragmentation average = 0
	minimum = 0
	maximum = 0
Injected packet rate average = 0.300312
	minimum = 0.29219 (at node 33)
	maximum = 0.305571 (at node 17)
Accepted packet rate average = 0.300021
	minimum = 0.291857 (at node 27)
	maximum = 0.30519 (at node 8)
Injected flit rate average = 0.300312
	minimum = 0.29219 (at node 33)
	maximum = 0.305571 (at node 17)
Accepted flit rate average= 0.300021
	minimum = 0.291857 (at node 27)
	maximum = 0.30519 (at node 8)
Injected packet length average = 1
Accepted packet length average = 1
Total in-flight flits = 262 (262 measured)
====== Peak Queue Occupancy Statistics (Absolute Max) ======
  Overall Max VC Occupancy = 1
  Overall Max Buffer Occupancy = 3
latency change    = 0.0153864
throughput change = 0.0828733
Class 0:
Packet latency average = 16.5419
	minimum = 10
	maximum = 38
	95th percentile = 22.5
	99th percentile = 25.5
Network latency average = 16.5419
	minimum = 10
	maximum = 38
	95th percentile = 22.5
	99th percentile = 25.5
Slowest packet = 33663
Flit latency average = 16.541
	minimum = 10
	maximum = 38
	95th percentile = 22.5
	99th percentile = 25.5
Slowest flit = 33663
Fragmentation average = 0
	minimum = 0
	maximum = 0
Injected packet rate average = 0.325119
	minimum = 0.318833 (at node 33)
	maximum = 0.329958 (at node 17)
Accepted packet rate average = 0.324807
	minimum = 0.318458 (at node 27)
	maximum = 0.3295 (at node 8)
Injected flit rate average = 0.325119
	minimum = 0.318833 (at node 33)
	maximum = 0.329958 (at node 17)
Accepted flit rate average= 0.324807
	minimum = 0.318458 (at node 27)
	maximum = 0.3295 (at node 8)
Injected packet length average = 1
Accepted packet length average = 1
Total in-flight flits = 312 (312 measured)
====== Peak Queue Occupancy Statistics (Absolute Max) ======
  Overall Max VC Occupancy = 1
  Overall Max Buffer Occupancy = 3
latency change    = 0.0124171
throughput change = 0.0763086
Class 0:
Packet latency average = 16.7244
	minimum = 10
	maximum = 38
	95th percentile = 23.5
	99th percentile = 25.5
Network latency average = 16.7244
	minimum = 10
	maximum = 38
	95th percentile = 23.5
	99th percentile = 25.5
Slowest packet = 33663
Flit latency average = 16.7236
	minimum = 10
	maximum = 38
	95th percentile = 23.5
	99th percentile = 25.5
Slowest flit = 33663
Fragmentation average = 0
	minimum = 0
	maximum = 0
Injected packet rate average = 0.349824
	minimum = 0.343741 (at node 30)
	maximum = 0.353556 (at node 34)
Accepted packet rate average = 0.349506
	minimum = 0.343444 (at node 33)
	maximum = 0.353148 (at node 25)
Injected flit rate average = 0.349824
	minimum = 0.343741 (at node 30)
	maximum = 0.353556 (at node 34)
Accepted flit rate average= 0.349506
	minimum = 0.343444 (at node 33)
	maximum = 0.353148 (at node 25)
Injected packet length average = 1
Accepted packet length average = 1
Total in-flight flits = 351 (351 measured)
====== Peak Queue Occupancy Statistics (Absolute Max) ======
  Overall Max VC Occupancy = 1
  Overall Max Buffer Occupancy = 3
latency change    = 0.0109094
throughput change = 0.0706696
Class 0:
Packet latency average = 16.8964
	minimum = 10
	maximum = 38
	95th percentile = 23.5
	99th percentile = 25.5
Network latency average = 16.8964
	minimum = 10
	maximum = 38
	95th percentile = 23.5
	99th percentile = 25.5
Slowest packet = 33663
Flit latency average = 16.8958
	minimum = 10
	maximum = 38
	95th percentile = 23.5
	99th percentile = 25.5
Slowest flit = 33663
Fragmentation average = 0
	minimum = 0
	maximum = 0
Injected packet rate average = 0.374523
	minimum = 0.369067 (at node 30)
	maximum = 0.377467 (at node 12)
Accepted packet rate average = 0.374194
	minimum = 0.368667 (at node 33)
	maximum = 0.377167 (at node 15)
Injected flit rate average = 0.374523
	minimum = 0.369067 (at node 30)
	maximum = 0.377467 (at node 12)
Accepted flit rate average= 0.374194
	minimum = 0.368667 (at node 33)
	maximum = 0.377167 (at node 15)
Injected packet length average = 1
Accepted packet length average = 1
Total in-flight flits = 398 (398 measured)
====== Peak Queue Occupancy Statistics (Absolute Max) ======
  Overall Max VC Occupancy = 1
  Overall Max Buffer Occupancy = 4
latency change    = 0.0101844
throughput change = 0.0659748
Class 0:
Packet latency average = 17.0723
	minimum = 10
	maximum = 38
	95th percentile = 23.5
	99th percentile = 26.5
Network latency average = 17.0723
	minimum = 10
	maximum = 38
	95th percentile = 23.5
	99th percentile = 26.5
Slowest packet = 33663
Flit latency average = 17.0717
	minimum = 10
	maximum = 38
	95th percentile = 23.5
	99th percentile = 26.5
Slowest flit = 33663
Fragmentation average = 0
	minimum = 0
	maximum = 0
Injected packet rate average = 0.399449
	minimum = 0.393545 (at node 30)
	maximum = 0.40297 (at node 12)
Accepted packet rate average = 0.399117
	minimum = 0.393121 (at node 33)
	maximum = 0.402667 (at node 15)
Injected flit rate average = 0.399449
	minimum = 0.393545 (at node 30)
	maximum = 0.40297 (at node 12)
Accepted flit rate average= 0.399117
	minimum = 0.393121 (at node 33)
	maximum = 0.402667 (at node 15)
Injected packet length average = 1
Accepted packet length average = 1
Total in-flight flits = 437 (437 measured)
====== Peak Queue Occupancy Statistics (Absolute Max) ======
  Overall Max VC Occupancy = 1
  Overall Max Buffer Occupancy = 4
latency change    = 0.0103003
throughput change = 0.0624466
Class 0:
Packet latency average = 17.2569
	minimum = 10
	maximum = 40
	95th percentile = 23.5
	99th percentile = 26.5
Network latency average = 17.2569
	minimum = 10
	maximum = 40
	95th percentile = 23.5
	99th percentile = 26.5
Slowest packet = 508075
Flit latency average = 17.2564
	minimum = 10
	maximum = 40
	95th percentile = 23.5
	99th percentile = 26.5
Slowest flit = 508075
Fragmentation average = 0
	minimum = 0
	maximum = 0
Injected packet rate average = 0.424615
	minimum = 0.420472 (at node 30)
	maximum = 0.428528 (at node 12)
Accepted packet rate average = 0.424275
	minimum = 0.420167 (at node 33)
	maximum = 0.428278 (at node 15)
Injected flit rate average = 0.424615
	minimum = 0.420472 (at node 30)
	maximum = 0.428528 (at node 12)
Accepted flit rate average= 0.424275
	minimum = 0.420167 (at node 33)
	maximum = 0.428278 (at node 15)
Injected packet length average = 1
Accepted packet length average = 1
Total in-flight flits = 482 (482 measured)
====== Peak Queue Occupancy Statistics (Absolute Max) ======
  Overall Max VC Occupancy = 1
  Overall Max Buffer Occupancy = 4
latency change    = 0.0107
throughput change = 0.0592975
Class 0:
Packet latency average = 17.4448
	minimum = 10
	maximum = 40
	95th percentile = 23.5
	99th percentile = 26.5
Network latency average = 17.4448
	minimum = 10
	maximum = 40
	95th percentile = 23.5
	99th percentile = 26.5
Slowest packet = 508075
Flit latency average = 17.4443
	minimum = 10
	maximum = 40
	95th percentile = 23.5
	99th percentile = 26.5
Slowest flit = 508075
Fragmentation average = 0
	minimum = 0
	maximum = 0
Injected packet rate average = 0.449632
	minimum = 0.445333 (at node 30)
	maximum = 0.453667 (at node 12)
Accepted packet rate average = 0.449303
	minimum = 0.445051 (at node 33)
	maximum = 0.45341 (at node 15)
Injected flit rate average = 0.449632
	minimum = 0.445333 (at node 30)
	maximum = 0.453667 (at node 12)
Accepted flit rate average= 0.449303
	minimum = 0.445051 (at node 33)
	maximum = 0.45341 (at node 15)
Injected packet length average = 1
Accepted packet length average = 1
Total in-flight flits = 505 (505 measured)
====== Peak Queue Occupancy Statistics (Absolute Max) ======
  Overall Max VC Occupancy = 1
  Overall Max Buffer Occupancy = 4
latency change    = 0.010767
throughput change = 0.0557024
Class 0:
Packet latency average = 17.6354
	minimum = 10
	maximum = 45
	95th percentile = 24.5
	99th percentile = 27.5
Network latency average = 17.6354
	minimum = 10
	maximum = 45
	95th percentile = 24.5
	99th percentile = 27.5
Slowest packet = 685478
Flit latency average = 17.635
	minimum = 10
	maximum = 45
	95th percentile = 24.5
	99th percentile = 27.5
Slowest flit = 685478
Fragmentation average = 0
	minimum = 0
	maximum = 0
Injected packet rate average = 0.474554
	minimum = 0.470524 (at node 30)
	maximum = 0.478238 (at node 12)
Accepted packet rate average = 0.474241
	minimum = 0.470333 (at node 33)
	maximum = 0.477976 (at node 15)
Injected flit rate average = 0.474554
	minimum = 0.470524 (at node 30)
	maximum = 0.478238 (at node 12)
Accepted flit rate average= 0.474241
	minimum = 0.470333 (at node 33)
	maximum = 0.477976 (at node 15)
Injected packet length average = 1
Accepted packet length average = 1
Total in-flight flits = 515 (515 measured)
====== Peak Queue Occupancy Statistics (Absolute Max) ======
  Overall Max VC Occupancy = 1
  Overall Max Buffer Occupancy = 4
latency change    = 0.0108099
throughput change = 0.0525865
Class 0:
Packet latency average = 17.7865
	minimum = 10
	maximum = 64
	95th percentile = 24.5
	99th percentile = 27.5
Network latency average = 17.7865
	minimum = 10
	maximum = 64
	95th percentile = 24.5
	99th percentile = 27.5
Slowest packet = 753169
Flit latency average = 17.7862
	minimum = 10
	maximum = 64
	95th percentile = 24.5
	99th percentile = 27.5
Slowest flit = 753169
Fragmentation average = 0
	minimum = 0
	maximum = 0
Injected packet rate average = 0.49621
	minimum = 0.4922 (at node 30)
	maximum = 0.499644 (at node 12)
Accepted packet rate average = 0.495894
	minimum = 0.491889 (at node 33)
	maximum = 0.499422 (at node 15)
Injected flit rate average = 0.49621
	minimum = 0.4922 (at node 30)
	maximum = 0.499644 (at node 12)
Accepted flit rate average= 0.495894
	minimum = 0.491889 (at node 33)
	maximum = 0.499422 (at node 15)
Injected packet length average = 1
Accepted packet length average = 1
Total in-flight flits = 554 (554 measured)
====== Peak Queue Occupancy Statistics (Absolute Max) ======
  Overall Max VC Occupancy = 1
  Overall Max Buffer Occupancy = 4
latency change    = 0.00849722
throughput change = 0.0436646
Class 0:
Packet latency average = 17.9091
	minimum = 10
	maximum = 64
	95th percentile = 24.5
	99th percentile = 27.5
Network latency average = 17.9091
	minimum = 10
	maximum = 64
	95th percentile = 24.5
	99th percentile = 27.5
Slowest packet = 753169
Flit latency average = 17.9088
	minimum = 10
	maximum = 64
	95th percentile = 24.5
	99th percentile = 27.5
Slowest flit = 753169
Fragmentation average = 0
	minimum = 0
	maximum = 0
Injected packet rate average = 0.515198
	minimum = 0.511146 (at node 30)
	maximum = 0.517625 (at node 12)
Accepted packet rate average = 0.514913
	minimum = 0.510854 (at node 33)
	maximum = 0.517396 (at node 15)
Injected flit rate average = 0.515198
	minimum = 0.511146 (at node 30)
	maximum = 0.517625 (at node 12)
Accepted flit rate average= 0.514913
	minimum = 0.510854 (at node 33)
	maximum = 0.517396 (at node 15)
Injected packet length average = 1
Accepted packet length average = 1
Total in-flight flits = 536 (536 measured)
====== Peak Queue Occupancy Statistics (Absolute Max) ======
  Overall Max VC Occupancy = 1
  Overall Max Buffer Occupancy = 4
latency change    = 0.00684443
throughput change = 0.0369348
Class 0:
Packet latency average = 18.0099
	minimum = 10
	maximum = 64
	95th percentile = 24.5
	99th percentile = 27.5
Network latency average = 18.0099
	minimum = 10
	maximum = 64
	95th percentile = 24.5
	99th percentile = 27.5
Slowest packet = 753169
Flit latency average = 18.0096
	minimum = 10
	maximum = 64
	95th percentile = 24.5
	99th percentile = 27.5
Slowest flit = 753169
Fragmentation average = 0
	minimum = 0
	maximum = 0
Injected packet rate average = 0.531941
	minimum = 0.528412 (at node 30)
	maximum = 0.535059 (at node 9)
Accepted packet rate average = 0.531665
	minimum = 0.528196 (at node 33)
	maximum = 0.534784 (at node 12)
Injected flit rate average = 0.531941
	minimum = 0.528412 (at node 30)
	maximum = 0.535059 (at node 9)
Accepted flit rate average= 0.531665
	minimum = 0.528196 (at node 33)
	maximum = 0.534784 (at node 12)
Injected packet length average = 1
Accepted packet length average = 1
Total in-flight flits = 548 (548 measured)
====== Peak Queue Occupancy Statistics (Absolute Max) ======
  Overall Max VC Occupancy = 1
  Overall Max Buffer Occupancy = 4
latency change    = 0.00559485
throughput change = 0.0315093
Draining all recorded packets ...
Draining remaining packets ...
Time taken is 57056 cycles
====== Overall Traffic Statistics ======
====== Traffic class 0 ======
Packet latency average = 18.011 (1 samples)
	minimum = 10 (1 samples)
	maximum = 64 (1 samples)
Network latency average = 18.011 (1 samples)
	minimum = 10 (1 samples)
	maximum = 64 (1 samples)
Flit latency average = 18.0112 (1 samples)
	minimum = 10 (1 samples)
	maximum = 64 (1 samples)
Fragmentation average = 0 (1 samples)
	minimum = 0 (1 samples)
	maximum = 0 (1 samples)
Injected packet rate average = 0.531941 (1 samples)
	minimum = 0.528412 (1 samples)
	maximum = 0.535059 (1 samples)
Accepted packet rate average = 0.531665 (1 samples)
	minimum = 0.528196 (1 samples)
	maximum = 0.534784 (1 samples)
Injected flit rate average = 0.531941 (1 samples)
	minimum = 0.528412 (1 samples)
	maximum = 0.535059 (1 samples)
Accepted flit rate average = 0.531665 (1 samples)
	minimum = 0.528196 (1 samples)
	maximum = 0.534784 (1 samples)
Injected packet size average = 1 (1 samples)
Accepted packet size average = 1 (1 samples)
Hops average = 3.41481 (1 samples)
Total run time 51.567
====== DFM Hybrid Routing Split Statistics ======
DR packets = 33007
DSL packets = 960726
DR fraction = 0.0332152
DSL fraction = 0.966785
DFM Flow (0 -> 3) alpha=1 dr_packets=460 dsl_packets=27128 dsl_fraction=0.983326
DFM Flow (1 -> 10) alpha=1 dr_packets=1169 dsl_packets=26466 dsl_fraction=0.957699
DFM Flow (2 -> 20) alpha=1 dr_packets=1099 dsl_packets=26627 dsl_fraction=0.960362
DFM Flow (3 -> 6) alpha=1 dr_packets=910 dsl_packets=26843 dsl_fraction=0.967211
DFM Flow (4 -> 13) alpha=1 dr_packets=1190 dsl_packets=26313 dsl_fraction=0.956732
DFM Flow (5 -> 23) alpha=1 dr_packets=1178 dsl_packets=26435 dsl_fraction=0.957339
DFM Flow (6 -> 0) alpha=1 dr_packets=446 dsl_packets=27233 dsl_fraction=0.983887
DFM Flow (7 -> 16) alpha=1 dr_packets=894 dsl_packets=26596 dsl_fraction=0.967479
DFM Flow (8 -> 26) alpha=1 dr_packets=1228 dsl_packets=26423 dsl_fraction=0.955589
DFM Flow (9 -> 12) alpha=1 dr_packets=302 dsl_packets=27448 dsl_fraction=0.989117
DFM Flow (10 -> 28) alpha=1 dr_packets=1075 dsl_packets=26558 dsl_fraction=0.961097
DFM Flow (11 -> 2) alpha=1 dr_packets=975 dsl_packets=26459 dsl_fraction=0.96446
DFM Flow (12 -> 15) alpha=1 dr_packets=316 dsl_packets=27437 dsl_fraction=0.988614
DFM Flow (13 -> 31) alpha=1 dr_packets=1304 dsl_packets=26238 dsl_fraction=0.952654
DFM Flow (14 -> 5) alpha=1 dr_packets=563 dsl_packets=27120 dsl_fraction=0.979663
DFM Flow (15 -> 9) alpha=1 dr_packets=438 dsl_packets=27158 dsl_fraction=0.984128
DFM Flow (16 -> 34) alpha=1 dr_packets=911 dsl_packets=26758 dsl_fraction=0.967075
DFM Flow (17 -> 8) alpha=1 dr_packets=1160 dsl_packets=26426 dsl_fraction=0.95795
DFM Flow (18 -> 21) alpha=1 dr_packets=609 dsl_packets=27105 dsl_fraction=0.978026
DFM Flow (19 -> 1) alpha=1 dr_packets=1314 dsl_packets=26306 dsl_fraction=0.952426
DFM Flow (20 -> 29) alpha=1 dr_packets=775 dsl_packets=26763 dsl_fraction=0.971857
DFM Flow (21 -> 24) alpha=1 dr_packets=805 dsl_packets=26679 dsl_fraction=0.97071
DFM Flow (22 -> 4) alpha=1 dr_packets=1249 dsl_packets=26368 dsl_fraction=0.954774
DFM Flow (23 -> 32) alpha=1 dr_packets=1156 dsl_packets=26458 dsl_fraction=0.958137
DFM Flow (24 -> 18) alpha=1 dr_packets=529 dsl_packets=27060 dsl_fraction=0.980826
DFM Flow (25 -> 7) alpha=1 dr_packets=1085 dsl_packets=26518 dsl_fraction=0.960693
DFM Flow (26 -> 35) alpha=1 dr_packets=1388 dsl_packets=26105 dsl_fraction=0.949514
DFM Flow (27 -> 30) alpha=1 dr_packets=711 dsl_packets=26847 dsl_fraction=0.9742
DFM Flow (28 -> 19) alpha=1 dr_packets=1097 dsl_packets=26612 dsl_fraction=0.96041
DFM Flow (29 -> 11) alpha=1 dr_packets=791 dsl_packets=26875 dsl_fraction=0.971409
DFM Flow (30 -> 33) alpha=1 dr_packets=760 dsl_packets=26680 dsl_fraction=0.972303
DFM Flow (31 -> 22) alpha=1 dr_packets=1226 dsl_packets=26360 dsl_fraction=0.955557
DFM Flow (32 -> 14) alpha=1 dr_packets=555 dsl_packets=26972 dsl_fraction=0.979838
DFM Flow (33 -> 27) alpha=1 dr_packets=704 dsl_packets=26760 dsl_fraction=0.974366
DFM Flow (34 -> 25) alpha=1 dr_packets=1534 dsl_packets=26083 dsl_fraction=0.944455
DFM Flow (35 -> 17) alpha=1 dr_packets=1101 dsl_packets=26509 dsl_fraction=0.960123
====== DFM Hybrid Routing Window Statistics ======
Window 0 DR packets=5390 DSL packets=0 DSL fraction=0
Window 1 DR packets=10257 DSL packets=618 DSL fraction=0.0568276
Window 2 DR packets=11586 DSL packets=4504 DSL fraction=0.279925
Window 3 DR packets=5496 DSL packets=15981 DSL fraction=0.744098
Window 4 DR packets=278 DSL packets=26735 DSL fraction=0.989709
Window 5 DR packets=0 DSL packets=32613 DSL fraction=1
Window 6 DR packets=0 DSL packets=38065 DSL fraction=1
Window 7 DR packets=0 DSL packets=43238 DSL fraction=1
Window 8 DR packets=0 DSL packets=48540 DSL fraction=1
Window 9 DR packets=0 DSL packets=53867 DSL fraction=1
Window 10 DR packets=0 DSL packets=59126 DSL fraction=1
Window 11 DR packets=0 DSL packets=64456 DSL fraction=1
Window 12 DR packets=0 DSL packets=70061 DSL fraction=1
Window 13 DR packets=0 DSL packets=75755 DSL fraction=1
Window 14 DR packets=0 DSL packets=80983 DSL fraction=1
Window 15 DR packets=0 DSL packets=86242 DSL fraction=1
Window 16 DR packets=0 DSL packets=86335 DSL fraction=1
Window 17 DR packets=0 DSL packets=86402 DSL fraction=1
Window 18 DR packets=0 DSL packets=86380 DSL fraction=1
Window 19 DR packets=0 DSL packets=825 DSL fraction=1
====== Observed Edge Statistics ======
edge_capacity = 1
Edge (0 -> 1) dst_input_port=2 max_buffer_ratio=1 buffer_over_90_fraction=0.0367267 buffer_full_fraction=0.0367267 max_full_streak=5 edge_capacity=0.222222 max_edge_load=0.181 max_edge_utilization=0.8145 total_traversals=5937 buffer_exploded=1 load_exceeded_capacity=0
Edge (0 -> 2) dst_input_port=2 max_buffer_ratio=1 buffer_over_90_fraction=0.0414714 buffer_full_fraction=0.0414714 max_full_streak=7 edge_capacity=0.222222 max_edge_load=0.18 max_edge_utilization=0.81 total_traversals=5954 buffer_exploded=1 load_exceeded_capacity=0
Edge (0 -> 3) dst_input_port=2 max_buffer_ratio=1 buffer_over_90_fraction=0.0259624 buffer_full_fraction=0.0259624 max_full_streak=7 edge_capacity=0.222222 max_edge_load=0.183 max_edge_utilization=0.8235 total_traversals=6490 buffer_exploded=1 load_exceeded_capacity=0
Edge (0 -> 4) dst_input_port=2 max_buffer_ratio=1 buffer_over_90_fraction=0.0452806 buffer_full_fraction=0.0452806 max_full_streak=5 edge_capacity=0.222222 max_edge_load=0.182 max_edge_utilization=0.819 total_traversals=5944 buffer_exploded=1 load_exceeded_capacity=0
Edge (0 -> 5) dst_input_port=2 max_buffer_ratio=1 buffer_over_90_fraction=0.0561202 buffer_full_fraction=0.0561202 max_full_streak=6 edge_capacity=0.222222 max_edge_load=0.182 max_edge_utilization=0.819 total_traversals=6028 buffer_exploded=1 load_exceeded_capacity=0
Edge (0 -> 6) dst_input_port=2 max_buffer_ratio=1 buffer_over_90_fraction=0.0353738 buffer_full_fraction=0.0353738 max_full_streak=6 edge_capacity=0.222222 max_edge_load=0.182 max_edge_utilization=0.819 total_traversals=5997 buffer_exploded=1 load_exceeded_capacity=0
Edge (0 -> 7) dst_input_port=2 max_buffer_ratio=1 buffer_over_90_fraction=0.0491653 buffer_full_fraction=0.0491653 max_full_streak=5 edge_capacity=0.222222 max_edge_load=0.181 max_edge_utilization=0.8145 total_traversals=5961 buffer_exploded=1 load_exceeded_capacity=0
Edge (0 -> 8) dst_input_port=2 max_buffer_ratio=1 buffer_over_90_fraction=0.0320777 buffer_full_fraction=0.0320777 max_full_streak=7 edge_capacity=0.222222 max_edge_load=0.182 max_edge_utilization=0.819 total_traversals=5951 buffer_exploded=1 load_exceeded_capacity=0
Edge (0 -> 9) dst_input_port=0 max_buffer_ratio=1 buffer_over_90_fraction=0.00104474 buffer_full_fraction=0.00104474 max_full_streak=2 edge_capacity=1 max_edge_load=0.272 max_edge_utilization=0.272 total_traversals=8821 buffer_exploded=1 load_exceeded_capacity=0
Edge (0 -> 18) dst_input_port=0 max_buffer_ratio=1 buffer_over_90_fraction=0.000694873 buffer_full_fraction=0.000694873 max_full_streak=1 edge_capacity=1 max_edge_load=0.271 max_edge_utilization=0.271 total_traversals=8833 buffer_exploded=1 load_exceeded_capacity=0
Edge (1 -> 0) dst_input_port=2 max_buffer_ratio=1 buffer_over_90_fraction=0.0239899 buffer_full_fraction=0.0239899 max_full_streak=6 edge_capacity=0.222222 max_edge_load=0.18 max_edge_utilization=0.81 total_traversals=5967 buffer_exploded=1 load_exceeded_capacity=0
Edge (1 -> 2) dst_input_port=3 max_buffer_ratio=1 buffer_over_90_fraction=0.0555254 buffer_full_fraction=0.0555254 max_full_streak=6 edge_capacity=0.222222 max_edge_load=0.18 max_edge_utilization=0.81 total_traversals=5881 buffer_exploded=1 load_exceeded_capacity=0
Edge (1 -> 3) dst_input_port=3 max_buffer_ratio=1 buffer_over_90_fraction=0.029881 buffer_full_fraction=0.029881 max_full_streak=6 edge_capacity=0.222222 max_edge_load=0.181 max_edge_utilization=0.8145 total_traversals=5955 buffer_exploded=1 load_exceeded_capacity=0
Edge (1 -> 4) dst_input_port=3 max_buffer_ratio=1 buffer_over_90_fraction=0.0430758 buffer_full_fraction=0.0430758 max_full_streak=6 edge_capacity=0.222222 max_edge_load=0.182 max_edge_utilization=0.819 total_traversals=5871 buffer_exploded=1 load_exceeded_capacity=0
Edge (1 -> 5) dst_input_port=3 max_buffer_ratio=1 buffer_over_90_fraction=0.0423148 buffer_full_fraction=0.0423148 max_full_streak=5 edge_capacity=0.222222 max_edge_load=0.18 max_edge_utilization=0.81 total_traversals=5955 buffer_exploded=1 load_exceeded_capacity=0
Edge (1 -> 6) dst_input_port=3 max_buffer_ratio=1 buffer_over_90_fraction=0.0623805 buffer_full_fraction=0.0623805 max_full_streak=7 edge_capacity=0.222222 max_edge_load=0.18 max_edge_utilization=0.81 total_traversals=5923 buffer_exploded=1 load_exceeded_capacity=0
Edge (1 -> 7) dst_input_port=3 max_buffer_ratio=1 buffer_over_90_fraction=0.0211322 buffer_full_fraction=0.0211322 max_full_streak=6 edge_capacity=0.222222 max_edge_load=0.181 max_edge_utilization=0.8145 total_traversals=5887 buffer_exploded=1 load_exceeded_capacity=0
Edge (1 -> 8) dst_input_port=3 max_buffer_ratio=1 buffer_over_90_fraction=0.0713661 buffer_full_fraction=0.0713661 max_full_streak=5 edge_capacity=0.222222 max_edge_load=0.181 max_edge_utilization=0.8145 total_traversals=5877 buffer_exploded=1 load_exceeded_capacity=0
Edge (1 -> 10) dst_input_port=0 max_buffer_ratio=1 buffer_over_90_fraction=0.000140265 buffer_full_fraction=0.000140265 max_full_streak=1 edge_capacity=1 max_edge_load=0.272 max_edge_utilization=0.272 total_traversals=9989 buffer_exploded=1 load_exceeded_capacity=0
Edge (1 -> 19) dst_input_port=0 max_buffer_ratio=1 buffer_over_90_fraction=0.00115817 buffer_full_fraction=0.00115817 max_full_streak=1 edge_capacity=1 max_edge_load=0.271 max_edge_utilization=0.271 total_traversals=8833 buffer_exploded=1 load_exceeded_capacity=0
Edge (2 -> 0) dst_input_port=3 max_buffer_ratio=1 buffer_over_90_fraction=0.0403332 buffer_full_fraction=0.0403332 max_full_streak=5 edge_capacity=0.222222 max_edge_load=0.181 max_edge_utilization=0.8145 total_traversals=5985 buffer_exploded=1 load_exceeded_capacity=0
Edge (2 -> 1) dst_input_port=3 max_buffer_ratio=1 buffer_over_90_fraction=0.0447768 buffer_full_fraction=0.0447768 max_full_streak=8 edge_capacity=0.222222 max_edge_load=0.18 max_edge_utilization=0.81 total_traversals=5882 buffer_exploded=1 load_exceeded_capacity=0
Edge (2 -> 3) dst_input_port=4 max_buffer_ratio=1 buffer_over_90_fraction=0.018939 buffer_full_fraction=0.018939 max_full_streak=6 edge_capacity=0.222222 max_edge_load=0.182 max_edge_utilization=0.819 total_traversals=5973 buffer_exploded=1 load_exceeded_capacity=0
Edge (2 -> 4) dst_input_port=4 max_buffer_ratio=1 buffer_over_90_fraction=0.0632573 buffer_full_fraction=0.0632573 max_full_streak=6 edge_capacity=0.222222 max_edge_load=0.184 max_edge_utilization=0.828 total_traversals=5889 buffer_exploded=1 load_exceeded_capacity=0
Edge (2 -> 5) dst_input_port=4 max_buffer_ratio=1 buffer_over_90_fraction=0.0370499 buffer_full_fraction=0.0370499 max_full_streak=5 edge_capacity=0.222222 max_edge_load=0.182 max_edge_utilization=0.819 total_traversals=5972 buffer_exploded=1 load_exceeded_capacity=0
Edge (2 -> 6) dst_input_port=4 max_buffer_ratio=1 buffer_over_90_fraction=0.066583 buffer_full_fraction=0.066583 max_full_streak=5 edge_capacity=0.222222 max_edge_load=0.182 max_edge_utilization=0.819 total_traversals=5941 buffer_exploded=1 load_exceeded_capacity=0
Edge (2 -> 7) dst_input_port=4 max_buffer_ratio=1 buffer_over_90_fraction=0.0605895 buffer_full_fraction=0.0605895 max_full_streak=6 edge_capacity=0.222222 max_edge_load=0.18 max_edge_utilization=0.81 total_traversals=5905 buffer_exploded=1 load_exceeded_capacity=0
Edge (2 -> 8) dst_input_port=4 max_buffer_ratio=1 buffer_over_90_fraction=0.0598213 buffer_full_fraction=0.0598213 max_full_streak=5 edge_capacity=0.222222 max_edge_load=0.181 max_edge_utilization=0.8145 total_traversals=5894 buffer_exploded=1 load_exceeded_capacity=0
Edge (2 -> 11) dst_input_port=0 max_buffer_ratio=1 buffer_over_90_fraction=0.00217169 buffer_full_fraction=0.00217169 max_full_streak=2 edge_capacity=1 max_edge_load=0.272 max_edge_utilization=0.272 total_traversals=8820 buffer_exploded=1 load_exceeded_capacity=0
Edge (2 -> 20) dst_input_port=0 max_buffer_ratio=1 buffer_over_90_fraction=0.000824214 buffer_full_fraction=0.000824214 max_full_streak=1 edge_capacity=1 max_edge_load=0.27 max_edge_utilization=0.27 total_traversals=9931 buffer_exploded=1 load_exceeded_capacity=0
Edge (3 -> 0) dst_input_port=4 max_buffer_ratio=1 buffer_over_90_fraction=0.053059 buffer_full_fraction=0.053059 max_full_streak=5 edge_capacity=0.222222 max_edge_load=0.181 max_edge_utilization=0.8145 total_traversals=6009 buffer_exploded=1 load_exceeded_capacity=0
Edge (3 -> 1) dst_input_port=4 max_buffer_ratio=1 buffer_over_90_fraction=0.0748299 buffer_full_fraction=0.0748299 max_full_streak=6 edge_capacity=0.222222 max_edge_load=0.183 max_edge_utilization=0.8235 total_traversals=5906 buffer_exploded=1 load_exceeded_capacity=0
Edge (3 -> 2) dst_input_port=4 max_buffer_ratio=1 buffer_over_90_fraction=0.0210812 buffer_full_fraction=0.0210812 max_full_streak=5 edge_capacity=0.222222 max_edge_load=0.181 max_edge_utilization=0.8145 total_traversals=5923 buffer_exploded=1 load_exceeded_capacity=0
Edge (3 -> 4) dst_input_port=5 max_buffer_ratio=1 buffer_over_90_fraction=0.0574249 buffer_full_fraction=0.0574249 max_full_streak=6 edge_capacity=0.222222 max_edge_load=0.182 max_edge_utilization=0.819 total_traversals=5912 buffer_exploded=1 load_exceeded_capacity=0
Edge (3 -> 5) dst_input_port=5 max_buffer_ratio=1 buffer_over_90_fraction=0.0371917 buffer_full_fraction=0.0371917 max_full_streak=7 edge_capacity=0.222222 max_edge_load=0.181 max_edge_utilization=0.8145 total_traversals=5995 buffer_exploded=1 load_exceeded_capacity=0
Edge (3 -> 6) dst_input_port=5 max_buffer_ratio=1 buffer_over_90_fraction=0.054191 buffer_full_fraction=0.054191 max_full_streak=5 edge_capacity=0.222222 max_edge_load=0.183 max_edge_utilization=0.8235 total_traversals=6876 buffer_exploded=1 load_exceeded_capacity=0
Edge (3 -> 7) dst_input_port=5 max_buffer_ratio=1 buffer_over_90_fraction=0.0484272 buffer_full_fraction=0.0484272 max_full_streak=5 edge_capacity=0.222222 max_edge_load=0.182 max_edge_utilization=0.819 total_traversals=5929 buffer_exploded=1 load_exceeded_capacity=0
Edge (3 -> 8) dst_input_port=5 max_buffer_ratio=1 buffer_over_90_fraction=0.0605811 buffer_full_fraction=0.0605811 max_full_streak=5 edge_capacity=0.222222 max_edge_load=0.183 max_edge_utilization=0.8235 total_traversals=5918 buffer_exploded=1 load_exceeded_capacity=0
Edge (3 -> 12) dst_input_port=0 max_buffer_ratio=1 buffer_over_90_fraction=0.00190582 buffer_full_fraction=0.00190582 max_full_streak=2 edge_capacity=1 max_edge_load=0.271 max_edge_utilization=0.271 total_traversals=8820 buffer_exploded=1 load_exceeded_capacity=0
Edge (3 -> 21) dst_input_port=0 max_buffer_ratio=1 buffer_over_90_fraction=0.000598571 buffer_full_fraction=0.000598571 max_full_streak=1 edge_capacity=1 max_edge_load=0.27 max_edge_utilization=0.27 total_traversals=8832 buffer_exploded=1 load_exceeded_capacity=0
Edge (4 -> 0) dst_input_port=5 max_buffer_ratio=1 buffer_over_90_fraction=0.0305933 buffer_full_fraction=0.0305933 max_full_streak=5 edge_capacity=0.222222 max_edge_load=0.182 max_edge_utilization=0.819 total_traversals=5950 buffer_exploded=1 load_exceeded_capacity=0
Edge (4 -> 1) dst_input_port=5 max_buffer_ratio=1 buffer_over_90_fraction=0.0388218 buffer_full_fraction=0.0388218 max_full_streak=5 edge_capacity=0.222222 max_edge_load=0.182 max_edge_utilization=0.819 total_traversals=5847 buffer_exploded=1 load_exceeded_capacity=0
Edge (4 -> 2) dst_input_port=5 max_buffer_ratio=1 buffer_over_90_fraction=0.0269008 buffer_full_fraction=0.0269008 max_full_streak=7 edge_capacity=0.222222 max_edge_load=0.18 max_edge_utilization=0.81 total_traversals=5864 buffer_exploded=1 load_exceeded_capacity=0
Edge (4 -> 3) dst_input_port=5 max_buffer_ratio=1 buffer_over_90_fraction=0.0539925 buffer_full_fraction=0.0539925 max_full_streak=6 edge_capacity=0.222222 max_edge_load=0.181 max_edge_utilization=0.8145 total_traversals=5938 buffer_exploded=1 load_exceeded_capacity=0
Edge (4 -> 5) dst_input_port=6 max_buffer_ratio=1 buffer_over_90_fraction=0.0367441 buffer_full_fraction=0.0367441 max_full_streak=7 edge_capacity=0.222222 max_edge_load=0.183 max_edge_utilization=0.8235 total_traversals=5937 buffer_exploded=1 load_exceeded_capacity=0
Edge (4 -> 6) dst_input_port=6 max_buffer_ratio=1 buffer_over_90_fraction=0.0529044 buffer_full_fraction=0.0529044 max_full_streak=6 edge_capacity=0.222222 max_edge_load=0.184 max_edge_utilization=0.828 total_traversals=5905 buffer_exploded=1 load_exceeded_capacity=0
Edge (4 -> 7) dst_input_port=6 max_buffer_ratio=1 buffer_over_90_fraction=0.0466875 buffer_full_fraction=0.0466875 max_full_streak=4 edge_capacity=0.222222 max_edge_load=0.182 max_edge_utilization=0.819 total_traversals=5869 buffer_exploded=1 load_exceeded_capacity=0
Edge (4 -> 8) dst_input_port=6 max_buffer_ratio=1 buffer_over_90_fraction=0.0469322 buffer_full_fraction=0.0469322 max_full_streak=8 edge_capacity=0.222222 max_edge_load=0.184 max_edge_utilization=0.828 total_traversals=5859 buffer_exploded=1 load_exceeded_capacity=0
Edge (4 -> 13) dst_input_port=0 max_buffer_ratio=1 buffer_over_90_fraction=0.00242003 buffer_full_fraction=0.00242003 max_full_streak=1 edge_capacity=1 max_edge_load=0.273 max_edge_utilization=0.273 total_traversals=10010 buffer_exploded=1 load_exceeded_capacity=0
Edge (4 -> 22) dst_input_port=0 max_buffer_ratio=1 buffer_over_90_fraction=0.000521457 buffer_full_fraction=0.000521457 max_full_streak=1 edge_capacity=1 max_edge_load=0.271 max_edge_utilization=0.271 total_traversals=8832 buffer_exploded=1 load_exceeded_capacity=0
Edge (5 -> 0) dst_input_port=6 max_buffer_ratio=1 buffer_over_90_fraction=0.0428577 buffer_full_fraction=0.0428577 max_full_streak=5 edge_capacity=0.222222 max_edge_load=0.18 max_edge_utilization=0.81 total_traversals=5964 buffer_exploded=1 load_exceeded_capacity=0
Edge (5 -> 1) dst_input_port=6 max_buffer_ratio=1 buffer_over_90_fraction=0.0844046 buffer_full_fraction=0.0844046 max_full_streak=5 edge_capacity=0.222222 max_edge_load=0.181 max_edge_utilization=0.8145 total_traversals=5861 buffer_exploded=1 load_exceeded_capacity=0
Edge (5 -> 2) dst_input_port=6 max_buffer_ratio=1 buffer_over_90_fraction=0.0445736 buffer_full_fraction=0.0445736 max_full_streak=5 edge_capacity=0.222222 max_edge_load=0.178 max_edge_utilization=0.801 total_traversals=5877 buffer_exploded=1 load_exceeded_capacity=0
Edge (5 -> 3) dst_input_port=6 max_buffer_ratio=1 buffer_over_90_fraction=0.0556459 buffer_full_fraction=0.0556459 max_full_streak=5 edge_capacity=0.222222 max_edge_load=0.181 max_edge_utilization=0.8145 total_traversals=5951 buffer_exploded=1 load_exceeded_capacity=0
Edge (5 -> 4) dst_input_port=6 max_buffer_ratio=1 buffer_over_90_fraction=0.0353984 buffer_full_fraction=0.0353984 max_full_streak=7 edge_capacity=0.222222 max_edge_load=0.182 max_edge_utilization=0.819 total_traversals=5867 buffer_exploded=1 load_exceeded_capacity=0
Edge (5 -> 6) dst_input_port=7 max_buffer_ratio=1 buffer_over_90_fraction=0.0480899 buffer_full_fraction=0.0480899 max_full_streak=5 edge_capacity=0.222222 max_edge_load=0.18 max_edge_utilization=0.81 total_traversals=5919 buffer_exploded=1 load_exceeded_capacity=0
Edge (5 -> 7) dst_input_port=7 max_buffer_ratio=1 buffer_over_90_fraction=0.0566362 buffer_full_fraction=0.0566362 max_full_streak=5 edge_capacity=0.222222 max_edge_load=0.18 max_edge_utilization=0.81 total_traversals=5883 buffer_exploded=1 load_exceeded_capacity=0
Edge (5 -> 8) dst_input_port=7 max_buffer_ratio=1 buffer_over_90_fraction=0.0716577 buffer_full_fraction=0.0716577 max_full_streak=6 edge_capacity=0.222222 max_edge_load=0.179 max_edge_utilization=0.8055 total_traversals=5873 buffer_exploded=1 load_exceeded_capacity=0
Edge (5 -> 14) dst_input_port=0 max_buffer_ratio=1 buffer_over_90_fraction=0.00137306 buffer_full_fraction=0.00137306 max_full_streak=1 edge_capacity=1 max_edge_load=0.272 max_edge_utilization=0.272 total_traversals=8820 buffer_exploded=1 load_exceeded_capacity=0
Edge (5 -> 23) dst_input_port=0 max_buffer_ratio=1 buffer_over_90_fraction=0.000981664 buffer_full_fraction=0.000981664 max_full_streak=1 edge_capacity=1 max_edge_load=0.27 max_edge_utilization=0.27 total_traversals=10009 buffer_exploded=1 load_exceeded_capacity=0
Edge (6 -> 0) dst_input_port=7 max_buffer_ratio=1 buffer_over_90_fraction=0.0635828 buffer_full_fraction=0.0635828 max_full_streak=5 edge_capacity=0.222222 max_edge_load=0.183 max_edge_utilization=0.8235 total_traversals=6498 buffer_exploded=1 load_exceeded_capacity=0
Edge (6 -> 1) dst_input_port=7 max_buffer_ratio=1 buffer_over_90_fraction=0.0413383 buffer_full_fraction=0.0413383 max_full_streak=5 edge_capacity=0.222222 max_edge_load=0.18 max_edge_utilization=0.81 total_traversals=5949 buffer_exploded=1 load_exceeded_capacity=0
Edge (6 -> 2) dst_input_port=7 max_buffer_ratio=1 buffer_over_90_fraction=0.0148796 buffer_full_fraction=0.0148796 max_full_streak=5 edge_capacity=0.222222 max_edge_load=0.181 max_edge_utilization=0.8145 total_traversals=5966 buffer_exploded=1 load_exceeded_capacity=0
Edge (6 -> 3) dst_input_port=7 max_buffer_ratio=1 buffer_over_90_fraction=0.0667905 buffer_full_fraction=0.0667905 max_full_streak=5 edge_capacity=0.222222 max_edge_load=0.181 max_edge_utilization=0.8145 total_traversals=6040 buffer_exploded=1 load_exceeded_capacity=0
Edge (6 -> 4) dst_input_port=7 max_buffer_ratio=1 buffer_over_90_fraction=0.0178719 buffer_full_fraction=0.0178719 max_full_streak=6 edge_capacity=0.222222 max_edge_load=0.182 max_edge_utilization=0.819 total_traversals=5956 buffer_exploded=1 load_exceeded_capacity=0
Edge (6 -> 5) dst_input_port=7 max_buffer_ratio=1 buffer_over_90_fraction=0.0309962 buffer_full_fraction=0.0309962 max_full_streak=6 edge_capacity=0.222222 max_edge_load=0.181 max_edge_utilization=0.8145 total_traversals=6039 buffer_exploded=1 load_exceeded_capacity=0
Edge (6 -> 7) dst_input_port=8 max_buffer_ratio=1 buffer_over_90_fraction=0.0305231 buffer_full_fraction=0.0305231 max_full_streak=6 edge_capacity=0.222222 max_edge_load=0.18 max_edge_utilization=0.81 total_traversals=5972 buffer_exploded=1 load_exceeded_capacity=0
Edge (6 -> 8) dst_input_port=8 max_buffer_ratio=1 buffer_over_90_fraction=0.0433616 buffer_full_fraction=0.0433616 max_full_streak=5 edge_capacity=0.222222 max_edge_load=0.181 max_edge_utilization=0.8145 total_traversals=5961 buffer_exploded=1 load_exceeded_capacity=0
Edge (6 -> 15) dst_input_port=0 max_buffer_ratio=1 buffer_over_90_fraction=0.00157826 buffer_full_fraction=0.00157826 max_full_streak=2 edge_capacity=1 max_edge_load=0.271 max_edge_utilization=0.271 total_traversals=8818 buffer_exploded=1 load_exceeded_capacity=0
Edge (6 -> 24) dst_input_port=0 max_buffer_ratio=1 buffer_over_90_fraction=0.00113957 buffer_full_fraction=0.00113957 max_full_streak=2 edge_capacity=1 max_edge_load=0.27 max_edge_utilization=0.27 total_traversals=8831 buffer_exploded=1 load_exceeded_capacity=0
Edge (7 -> 0) dst_input_port=8 max_buffer_ratio=1 buffer_over_90_fraction=0.0601694 buffer_full_fraction=0.0601694 max_full_streak=5 edge_capacity=0.222222 max_edge_load=0.182 max_edge_utilization=0.819 total_traversals=5982 buffer_exploded=1 load_exceeded_capacity=0
Edge (7 -> 1) dst_input_port=8 max_buffer_ratio=1 buffer_over_90_fraction=0.0734405 buffer_full_fraction=0.0734405 max_full_streak=5 edge_capacity=0.222222 max_edge_load=0.181 max_edge_utilization=0.8145 total_traversals=5878 buffer_exploded=1 load_exceeded_capacity=0
Edge (7 -> 2) dst_input_port=8 max_buffer_ratio=1 buffer_over_90_fraction=0.0589433 buffer_full_fraction=0.0589433 max_full_streak=5 edge_capacity=0.222222 max_edge_load=0.18 max_edge_utilization=0.81 total_traversals=5895 buffer_exploded=1 load_exceeded_capacity=0
Edge (7 -> 3) dst_input_port=8 max_buffer_ratio=1 buffer_over_90_fraction=0.0610209 buffer_full_fraction=0.0610209 max_full_streak=6 edge_capacity=0.222222 max_edge_load=0.183 max_edge_utilization=0.8235 total_traversals=5969 buffer_exploded=1 load_exceeded_capacity=0
Edge (7 -> 4) dst_input_port=8 max_buffer_ratio=1 buffer_over_90_fraction=0.0162497 buffer_full_fraction=0.0162497 max_full_streak=5 edge_capacity=0.222222 max_edge_load=0.181 max_edge_utilization=0.8145 total_traversals=5884 buffer_exploded=1 load_exceeded_capacity=0
Edge (7 -> 5) dst_input_port=8 max_buffer_ratio=1 buffer_over_90_fraction=0.0358684 buffer_full_fraction=0.0358684 max_full_streak=4 edge_capacity=0.222222 max_edge_load=0.18 max_edge_utilization=0.81 total_traversals=5968 buffer_exploded=1 load_exceeded_capacity=0
Edge (7 -> 6) dst_input_port=8 max_buffer_ratio=1 buffer_over_90_fraction=0.0309272 buffer_full_fraction=0.0309272 max_full_streak=5 edge_capacity=0.222222 max_edge_load=0.182 max_edge_utilization=0.819 total_traversals=5937 buffer_exploded=1 load_exceeded_capacity=0
Edge (7 -> 8) dst_input_port=9 max_buffer_ratio=1 buffer_over_90_fraction=0.0282897 buffer_full_fraction=0.0282897 max_full_streak=6 edge_capacity=0.222222 max_edge_load=0.182 max_edge_utilization=0.819 total_traversals=5891 buffer_exploded=1 load_exceeded_capacity=0
Edge (7 -> 16) dst_input_port=0 max_buffer_ratio=1 buffer_over_90_fraction=0.000368156 buffer_full_fraction=0.000368156 max_full_streak=1 edge_capacity=1 max_edge_load=0.273 max_edge_utilization=0.273 total_traversals=9712 buffer_exploded=1 load_exceeded_capacity=0
Edge (7 -> 25) dst_input_port=0 max_buffer_ratio=1 buffer_over_90_fraction=0.00059886 buffer_full_fraction=0.00059886 max_full_streak=1 edge_capacity=1 max_edge_load=0.271 max_edge_utilization=0.271 total_traversals=8831 buffer_exploded=1 load_exceeded_capacity=0
Edge (8 -> 0) dst_input_port=9 max_buffer_ratio=1 buffer_over_90_fraction=0.0318099 buffer_full_fraction=0.0318099 max_full_streak=5 edge_capacity=0.222222 max_edge_load=0.181 max_edge_utilization=0.8145 total_traversals=5961 buffer_exploded=1 load_exceeded_capacity=0
Edge (8 -> 1) dst_input_port=9 max_buffer_ratio=1 buffer_over_90_fraction=0.0629657 buffer_full_fraction=0.0629657 max_full_streak=6 edge_capacity=0.222222 max_edge_load=0.182 max_edge_utilization=0.819 total_traversals=5858 buffer_exploded=1 load_exceeded_capacity=0
Edge (8 -> 2) dst_input_port=9 max_buffer_ratio=1 buffer_over_90_fraction=0.0632686 buffer_full_fraction=0.0632686 max_full_streak=6 edge_capacity=0.222222 max_edge_load=0.18 max_edge_utilization=0.81 total_traversals=5875 buffer_exploded=1 load_exceeded_capacity=0
Edge (8 -> 3) dst_input_port=9 max_buffer_ratio=1 buffer_over_90_fraction=0.0533775 buffer_full_fraction=0.0533775 max_full_streak=5 edge_capacity=0.222222 max_edge_load=0.182 max_edge_utilization=0.819 total_traversals=5950 buffer_exploded=1 load_exceeded_capacity=0
Edge (8 -> 4) dst_input_port=9 max_buffer_ratio=1 buffer_over_90_fraction=0.0241453 buffer_full_fraction=0.0241453 max_full_streak=6 edge_capacity=0.222222 max_edge_load=0.181 max_edge_utilization=0.8145 total_traversals=5865 buffer_exploded=1 load_exceeded_capacity=0
Edge (8 -> 5) dst_input_port=9 max_buffer_ratio=1 buffer_over_90_fraction=0.0357668 buffer_full_fraction=0.0357668 max_full_streak=5 edge_capacity=0.222222 max_edge_load=0.181 max_edge_utilization=0.8145 total_traversals=5949 buffer_exploded=1 load_exceeded_capacity=0
Edge (8 -> 6) dst_input_port=9 max_buffer_ratio=1 buffer_over_90_fraction=0.0476622 buffer_full_fraction=0.0476622 max_full_streak=4 edge_capacity=0.222222 max_edge_load=0.182 max_edge_utilization=0.819 total_traversals=5918 buffer_exploded=1 load_exceeded_capacity=0
Edge (8 -> 7) dst_input_port=9 max_buffer_ratio=1 buffer_over_90_fraction=0.0392417 buffer_full_fraction=0.0392417 max_full_streak=5 edge_capacity=0.222222 max_edge_load=0.182 max_edge_utilization=0.819 total_traversals=5882 buffer_exploded=1 load_exceeded_capacity=0
Edge (8 -> 17) dst_input_port=0 max_buffer_ratio=1 buffer_over_90_fraction=0.00120959 buffer_full_fraction=0.00120959 max_full_streak=1 edge_capacity=1 max_edge_load=0.271 max_edge_utilization=0.271 total_traversals=8818 buffer_exploded=1 load_exceeded_capacity=0
Edge (8 -> 26) dst_input_port=0 max_buffer_ratio=1 buffer_over_90_fraction=0.00049097 buffer_full_fraction=0.00049097 max_full_streak=1 edge_capacity=1 max_edge_load=0.271 max_edge_utilization=0.271 total_traversals=10058 buffer_exploded=1 load_exceeded_capacity=0
Edge (9 -> 0) dst_input_port=0 max_buffer_ratio=1 buffer_over_90_fraction=0.00181607 buffer_full_fraction=0.00181607 max_full_streak=2 edge_capacity=1 max_edge_load=0.27 max_edge_utilization=0.27 total_traversals=8891 buffer_exploded=1 load_exceeded_capacity=0
Edge (9 -> 10) dst_input_port=2 max_buffer_ratio=1 buffer_over_90_fraction=0.0272873 buffer_full_fraction=0.0272873 max_full_streak=5 edge_capacity=0.222222 max_edge_load=0.181 max_edge_utilization=0.8145 total_traversals=5991 buffer_exploded=1 load_exceeded_capacity=0
Edge (9 -> 11) dst_input_port=2 max_buffer_ratio=1 buffer_over_90_fraction=0.047066 buffer_full_fraction=0.047066 max_full_streak=5 edge_capacity=0.222222 max_edge_load=0.18 max_edge_utilization=0.81 total_traversals=6037 buffer_exploded=1 load_exceeded_capacity=0
Edge (9 -> 12) dst_input_port=2 max_buffer_ratio=1 buffer_over_90_fraction=0.0108736 buffer_full_fraction=0.0108736 max_full_streak=6 edge_capacity=0.222222 max_edge_load=0.184 max_edge_utilization=0.828 total_traversals=6402 buffer_exploded=1 load_exceeded_capacity=0
Edge (9 -> 13) dst_input_port=2 max_buffer_ratio=1 buffer_over_90_fraction=0.065676 buffer_full_fraction=0.065676 max_full_streak=5 edge_capacity=0.222222 max_edge_load=0.182 max_edge_utilization=0.819 total_traversals=5974 buffer_exploded=1 load_exceeded_capacity=0
Edge (9 -> 14) dst_input_port=2 max_buffer_ratio=1 buffer_over_90_fraction=0.0453704 buffer_full_fraction=0.0453704 max_full_streak=6 edge_capacity=0.222222 max_edge_load=0.18 max_edge_utilization=0.81 total_traversals=6047 buffer_exploded=1 load_exceeded_capacity=0
Edge (9 -> 15) dst_input_port=2 max_buffer_ratio=1 buffer_over_90_fraction=0.0631854 buffer_full_fraction=0.0631854 max_full_streak=6 edge_capacity=0.222222 max_edge_load=0.181 max_edge_utilization=0.8145 total_traversals=6099 buffer_exploded=1 load_exceeded_capacity=0
Edge (9 -> 16) dst_input_port=2 max_buffer_ratio=1 buffer_over_90_fraction=0.0485626 buffer_full_fraction=0.0485626 max_full_streak=6 edge_capacity=0.222222 max_edge_load=0.183 max_edge_utilization=0.8235 total_traversals=6005 buffer_exploded=1 load_exceeded_capacity=0
Edge (9 -> 17) dst_input_port=2 max_buffer_ratio=1 buffer_over_90_fraction=0.0277571 buffer_full_fraction=0.0277571 max_full_streak=6 edge_capacity=0.222222 max_edge_load=0.182 max_edge_utilization=0.819 total_traversals=5995 buffer_exploded=1 load_exceeded_capacity=0
Edge (9 -> 27) dst_input_port=0 max_buffer_ratio=1 buffer_over_90_fraction=0.00259327 buffer_full_fraction=0.00259327 max_full_streak=1 edge_capacity=1 max_edge_load=0.272 max_edge_utilization=0.272 total_traversals=8841 buffer_exploded=1 load_exceeded_capacity=0
Edge (10 -> 1) dst_input_port=0 max_buffer_ratio=1 buffer_over_90_fraction=0.00195135 buffer_full_fraction=0.00195135 max_full_streak=1 edge_capacity=1 max_edge_load=0.27 max_edge_utilization=0.27 total_traversals=8891 buffer_exploded=1 load_exceeded_capacity=0
Edge (10 -> 9) dst_input_port=2 max_buffer_ratio=1 buffer_over_90_fraction=0.0414811 buffer_full_fraction=0.0414811 max_full_streak=7 edge_capacity=0.222222 max_edge_load=0.182 max_edge_utilization=0.819 total_traversals=5969 buffer_exploded=1 load_exceeded_capacity=0
Edge (10 -> 11) dst_input_port=3 max_buffer_ratio=1 buffer_over_90_fraction=0.0595291 buffer_full_fraction=0.0595291 max_full_streak=5 edge_capacity=0.222222 max_edge_load=0.18 max_edge_utilization=0.81 total_traversals=5937 buffer_exploded=1 load_exceeded_capacity=0
Edge (10 -> 12) dst_input_port=3 max_buffer_ratio=1 buffer_over_90_fraction=0.0529006 buffer_full_fraction=0.0529006 max_full_streak=7 edge_capacity=0.222222 max_edge_load=0.183 max_edge_utilization=0.8235 total_traversals=6001 buffer_exploded=1 load_exceeded_capacity=0
Edge (10 -> 13) dst_input_port=3 max_buffer_ratio=1 buffer_over_90_fraction=0.0158393 buffer_full_fraction=0.0158393 max_full_streak=5 edge_capacity=0.222222 max_edge_load=0.182 max_edge_utilization=0.819 total_traversals=5875 buffer_exploded=1 load_exceeded_capacity=0
Edge (10 -> 14) dst_input_port=3 max_buffer_ratio=1 buffer_over_90_fraction=0.0375764 buffer_full_fraction=0.0375764 max_full_streak=7 edge_capacity=0.222222 max_edge_load=0.18 max_edge_utilization=0.81 total_traversals=5948 buffer_exploded=1 load_exceeded_capacity=0
Edge (10 -> 15) dst_input_port=3 max_buffer_ratio=1 buffer_over_90_fraction=0.0500467 buffer_full_fraction=0.0500467 max_full_streak=6 edge_capacity=0.222222 max_edge_load=0.181 max_edge_utilization=0.8145 total_traversals=6000 buffer_exploded=1 load_exceeded_capacity=0
Edge (10 -> 16) dst_input_port=3 max_buffer_ratio=1 buffer_over_90_fraction=0.0503666 buffer_full_fraction=0.0503666 max_full_streak=5 edge_capacity=0.222222 max_edge_load=0.181 max_edge_utilization=0.8145 total_traversals=5906 buffer_exploded=1 load_exceeded_capacity=0
Edge (10 -> 17) dst_input_port=3 max_buffer_ratio=1 buffer_over_90_fraction=0.0538362 buffer_full_fraction=0.0538362 max_full_streak=6 edge_capacity=0.222222 max_edge_load=0.181 max_edge_utilization=0.8145 total_traversals=5896 buffer_exploded=1 load_exceeded_capacity=0
Edge (10 -> 28) dst_input_port=0 max_buffer_ratio=1 buffer_over_90_fraction=0.000683731 buffer_full_fraction=0.000683731 max_full_streak=2 edge_capacity=1 max_edge_load=0.273 max_edge_utilization=0.273 total_traversals=9915 buffer_exploded=1 load_exceeded_capacity=0
Edge (11 -> 2) dst_input_port=0 max_buffer_ratio=1 buffer_over_90_fraction=0.000298063 buffer_full_fraction=0.000298063 max_full_streak=1 edge_capacity=1 max_edge_load=0.269 max_edge_utilization=0.269 total_traversals=9865 buffer_exploded=1 load_exceeded_capacity=0
Edge (11 -> 9) dst_input_port=3 max_buffer_ratio=1 buffer_over_90_fraction=0.0436104 buffer_full_fraction=0.0436104 max_full_streak=7 edge_capacity=0.222222 max_edge_load=0.181 max_edge_utilization=0.8145 total_traversals=5958 buffer_exploded=1 load_exceeded_capacity=0
Edge (11 -> 10) dst_input_port=3 max_buffer_ratio=1 buffer_over_90_fraction=0.0491051 buffer_full_fraction=0.0491051 max_full_streak=6 edge_capacity=0.222222 max_edge_load=0.18 max_edge_utilization=0.81 total_traversals=5881 buffer_exploded=1 load_exceeded_capacity=0
Edge (11 -> 12) dst_input_port=4 max_buffer_ratio=1 buffer_over_90_fraction=0.0377434 buffer_full_fraction=0.0377434 max_full_streak=6 edge_capacity=0.222222 max_edge_load=0.18 max_edge_utilization=0.81 total_traversals=5990 buffer_exploded=1 load_exceeded_capacity=0
Edge (11 -> 13) dst_input_port=4 max_buffer_ratio=1 buffer_over_90_fraction=0.0187966 buffer_full_fraction=0.0187966 max_full_streak=7 edge_capacity=0.222222 max_edge_load=0.18 max_edge_utilization=0.81 total_traversals=5864 buffer_exploded=1 load_exceeded_capacity=0
Edge (11 -> 14) dst_input_port=4 max_buffer_ratio=1 buffer_over_90_fraction=0.0295794 buffer_full_fraction=0.0295794 max_full_streak=5 edge_capacity=0.222222 max_edge_load=0.179 max_edge_utilization=0.8055 total_traversals=5937 buffer_exploded=1 load_exceeded_capacity=0
Edge (11 -> 15) dst_input_port=4 max_buffer_ratio=1 buffer_over_90_fraction=0.0534051 buffer_full_fraction=0.0534051 max_full_streak=6 edge_capacity=0.222222 max_edge_load=0.179 max_edge_utilization=0.8055 total_traversals=5989 buffer_exploded=1 load_exceeded_capacity=0
Edge (11 -> 16) dst_input_port=4 max_buffer_ratio=1 buffer_over_90_fraction=0.0376868 buffer_full_fraction=0.0376868 max_full_streak=4 edge_capacity=0.222222 max_edge_load=0.179 max_edge_utilization=0.8055 total_traversals=5895 buffer_exploded=1 load_exceeded_capacity=0
Edge (11 -> 17) dst_input_port=4 max_buffer_ratio=1 buffer_over_90_fraction=0.0397743 buffer_full_fraction=0.0397743 max_full_streak=5 edge_capacity=0.222222 max_edge_load=0.179 max_edge_utilization=0.8055 total_traversals=5885 buffer_exploded=1 load_exceeded_capacity=0
Edge (11 -> 29) dst_input_port=0 max_buffer_ratio=1 buffer_over_90_fraction=0.00108064 buffer_full_fraction=0.00108064 max_full_streak=1 edge_capacity=1 max_edge_load=0.27 max_edge_utilization=0.27 total_traversals=8840 buffer_exploded=1 load_exceeded_capacity=0
Edge (12 -> 3) dst_input_port=0 max_buffer_ratio=1 buffer_over_90_fraction=0.00141101 buffer_full_fraction=0.00141101 max_full_streak=1 edge_capacity=1 max_edge_load=0.269 max_edge_utilization=0.269 total_traversals=8889 buffer_exploded=1 load_exceeded_capacity=0
Edge (12 -> 9) dst_input_port=4 max_buffer_ratio=1 buffer_over_90_fraction=0.0306463 buffer_full_fraction=0.0306463 max_full_streak=5 edge_capacity=0.222222 max_edge_load=0.182 max_edge_utilization=0.819 total_traversals=6067 buffer_exploded=1 load_exceeded_capacity=0
Edge (12 -> 10) dst_input_port=4 max_buffer_ratio=1 buffer_over_90_fraction=0.0373605 buffer_full_fraction=0.0373605 max_full_streak=7 edge_capacity=0.222222 max_edge_load=0.18 max_edge_utilization=0.81 total_traversals=5990 buffer_exploded=1 load_exceeded_capacity=0
Edge (12 -> 11) dst_input_port=4 max_buffer_ratio=1 buffer_over_90_fraction=0.0343729 buffer_full_fraction=0.0343729 max_full_streak=6 edge_capacity=0.222222 max_edge_load=0.18 max_edge_utilization=0.81 total_traversals=6035 buffer_exploded=1 load_exceeded_capacity=0
Edge (12 -> 13) dst_input_port=5 max_buffer_ratio=1 buffer_over_90_fraction=0.0218404 buffer_full_fraction=0.0218404 max_full_streak=7 edge_capacity=0.222222 max_edge_load=0.181 max_edge_utilization=0.8145 total_traversals=5972 buffer_exploded=1 load_exceeded_capacity=0
Edge (12 -> 14) dst_input_port=5 max_buffer_ratio=1 buffer_over_90_fraction=0.0493556 buffer_full_fraction=0.0493556 max_full_streak=6 edge_capacity=0.222222 max_edge_load=0.18 max_edge_utilization=0.81 total_traversals=6045 buffer_exploded=1 load_exceeded_capacity=0
Edge (12 -> 15) dst_input_port=5 max_buffer_ratio=1 buffer_over_90_fraction=0.0497143 buffer_full_fraction=0.0497143 max_full_streak=6 edge_capacity=0.222222 max_edge_load=0.182 max_edge_utilization=0.819 total_traversals=6414 buffer_exploded=1 load_exceeded_capacity=0
Edge (12 -> 16) dst_input_port=5 max_buffer_ratio=1 buffer_over_90_fraction=0.0383521 buffer_full_fraction=0.0383521 max_full_streak=5 edge_capacity=0.222222 max_edge_load=0.181 max_edge_utilization=0.8145 total_traversals=6003 buffer_exploded=1 load_exceeded_capacity=0
Edge (12 -> 17) dst_input_port=5 max_buffer_ratio=1 buffer_over_90_fraction=0.0539467 buffer_full_fraction=0.0539467 max_full_streak=7 edge_capacity=0.222222 max_edge_load=0.18 max_edge_utilization=0.81 total_traversals=5994 buffer_exploded=1 load_exceeded_capacity=0
Edge (12 -> 30) dst_input_port=0 max_buffer_ratio=1 buffer_over_90_fraction=0.00115927 buffer_full_fraction=0.00115927 max_full_streak=1 edge_capacity=1 max_edge_load=0.271 max_edge_utilization=0.271 total_traversals=8839 buffer_exploded=1 load_exceeded_capacity=0
Edge (13 -> 4) dst_input_port=0 max_buffer_ratio=1 buffer_over_90_fraction=0.00197242 buffer_full_fraction=0.00197242 max_full_streak=1 edge_capacity=1 max_edge_load=0.269 max_edge_utilization=0.269 total_traversals=8889 buffer_exploded=1 load_exceeded_capacity=0
Edge (13 -> 9) dst_input_port=5 max_buffer_ratio=1 buffer_over_90_fraction=0.0725326 buffer_full_fraction=0.0725326 max_full_streak=6 edge_capacity=0.222222 max_edge_load=0.181 max_edge_utilization=0.8145 total_traversals=5933 buffer_exploded=1 load_exceeded_capacity=0
Edge (13 -> 10) dst_input_port=5 max_buffer_ratio=1 buffer_over_90_fraction=0.0362037 buffer_full_fraction=0.0362037 max_full_streak=5 edge_capacity=0.222222 max_edge_load=0.18 max_edge_utilization=0.81 total_traversals=5857 buffer_exploded=1 load_exceeded_capacity=0
Edge (13 -> 11) dst_input_port=5 max_buffer_ratio=1 buffer_over_90_fraction=0.0501415 buffer_full_fraction=0.0501415 max_full_streak=6 edge_capacity=0.222222 max_edge_load=0.181 max_edge_utilization=0.8145 total_traversals=5902 buffer_exploded=1 load_exceeded_capacity=0
Edge (13 -> 12) dst_input_port=5 max_buffer_ratio=1 buffer_over_90_fraction=0.0578596 buffer_full_fraction=0.0578596 max_full_streak=5 edge_capacity=0.222222 max_edge_load=0.183 max_edge_utilization=0.8235 total_traversals=5965 buffer_exploded=1 load_exceeded_capacity=0
Edge (13 -> 14) dst_input_port=6 max_buffer_ratio=1 buffer_over_90_fraction=0.0446349 buffer_full_fraction=0.0446349 max_full_streak=5 edge_capacity=0.222222 max_edge_load=0.18 max_edge_utilization=0.81 total_traversals=5912 buffer_exploded=1 load_exceeded_capacity=0
Edge (13 -> 15) dst_input_port=6 max_buffer_ratio=1 buffer_over_90_fraction=0.0610394 buffer_full_fraction=0.0610394 max_full_streak=6 edge_capacity=0.222222 max_edge_load=0.18 max_edge_utilization=0.81 total_traversals=5963 buffer_exploded=1 load_exceeded_capacity=0
Edge (13 -> 16) dst_input_port=6 max_buffer_ratio=1 buffer_over_90_fraction=0.039022 buffer_full_fraction=0.039022 max_full_streak=5 edge_capacity=0.222222 max_edge_load=0.182 max_edge_utilization=0.819 total_traversals=5870 buffer_exploded=1 load_exceeded_capacity=0
Edge (13 -> 17) dst_input_port=6 max_buffer_ratio=1 buffer_over_90_fraction=0.057983 buffer_full_fraction=0.057983 max_full_streak=5 edge_capacity=0.222222 max_edge_load=0.179 max_edge_utilization=0.8055 total_traversals=5860 buffer_exploded=1 load_exceeded_capacity=0
Edge (13 -> 31) dst_input_port=0 max_buffer_ratio=1 buffer_over_90_fraction=0.000561128 buffer_full_fraction=0.000561128 max_full_streak=1 edge_capacity=1 max_edge_load=0.27 max_edge_utilization=0.27 total_traversals=10143 buffer_exploded=1 load_exceeded_capacity=0
Edge (14 -> 5) dst_input_port=0 max_buffer_ratio=1 buffer_over_90_fraction=0.00106942 buffer_full_fraction=0.00106942 max_full_streak=1 edge_capacity=1 max_edge_load=0.269 max_edge_utilization=0.269 total_traversals=9452 buffer_exploded=1 load_exceeded_capacity=0
Edge (14 -> 9) dst_input_port=6 max_buffer_ratio=1 buffer_over_90_fraction=0.0404335 buffer_full_fraction=0.0404335 max_full_streak=5 edge_capacity=0.222222 max_edge_load=0.181 max_edge_utilization=0.8145 total_traversals=6031 buffer_exploded=1 load_exceeded_capacity=0
Edge (14 -> 10) dst_input_port=6 max_buffer_ratio=1 buffer_over_90_fraction=0.0396422 buffer_full_fraction=0.0396422 max_full_streak=6 edge_capacity=0.222222 max_edge_load=0.18 max_edge_utilization=0.81 total_traversals=5955 buffer_exploded=1 load_exceeded_capacity=0
Edge (14 -> 11) dst_input_port=6 max_buffer_ratio=1 buffer_over_90_fraction=0.030416 buffer_full_fraction=0.030416 max_full_streak=5 edge_capacity=0.222222 max_edge_load=0.18 max_edge_utilization=0.81 total_traversals=6000 buffer_exploded=1 load_exceeded_capacity=0
Edge (14 -> 12) dst_input_port=6 max_buffer_ratio=1 buffer_over_90_fraction=0.0630808 buffer_full_fraction=0.0630808 max_full_streak=5 edge_capacity=0.222222 max_edge_load=0.182 max_edge_utilization=0.819 total_traversals=6063 buffer_exploded=1 load_exceeded_capacity=0
Edge (14 -> 13) dst_input_port=6 max_buffer_ratio=1 buffer_over_90_fraction=0.0245374 buffer_full_fraction=0.0245374 max_full_streak=6 edge_capacity=0.222222 max_edge_load=0.182 max_edge_utilization=0.819 total_traversals=5937 buffer_exploded=1 load_exceeded_capacity=0
Edge (14 -> 15) dst_input_port=7 max_buffer_ratio=1 buffer_over_90_fraction=0.0552214 buffer_full_fraction=0.0552214 max_full_streak=5 edge_capacity=0.222222 max_edge_load=0.181 max_edge_utilization=0.8145 total_traversals=6061 buffer_exploded=1 load_exceeded_capacity=0
Edge (14 -> 16) dst_input_port=7 max_buffer_ratio=1 buffer_over_90_fraction=0.0300211 buffer_full_fraction=0.0300211 max_full_streak=4 edge_capacity=0.222222 max_edge_load=0.181 max_edge_utilization=0.8145 total_traversals=5968 buffer_exploded=1 load_exceeded_capacity=0
Edge (14 -> 17) dst_input_port=7 max_buffer_ratio=1 buffer_over_90_fraction=0.0537774 buffer_full_fraction=0.0537774 max_full_streak=5 edge_capacity=0.222222 max_edge_load=0.181 max_edge_utilization=0.8145 total_traversals=5958 buffer_exploded=1 load_exceeded_capacity=0
Edge (14 -> 32) dst_input_port=0 max_buffer_ratio=1 buffer_over_90_fraction=0.00161167 buffer_full_fraction=0.00161167 max_full_streak=2 edge_capacity=1 max_edge_load=0.271 max_edge_utilization=0.271 total_traversals=8839 buffer_exploded=1 load_exceeded_capacity=0
Edge (15 -> 6) dst_input_port=0 max_buffer_ratio=1 buffer_over_90_fraction=0.00208885 buffer_full_fraction=0.00208885 max_full_streak=1 edge_capacity=1 max_edge_load=0.269 max_edge_utilization=0.269 total_traversals=8889 buffer_exploded=1 load_exceeded_capacity=0
Edge (15 -> 9) dst_input_port=7 max_buffer_ratio=1 buffer_over_90_fraction=0.0459311 buffer_full_fraction=0.0459311 max_full_streak=7 edge_capacity=0.222222 max_edge_load=0.184 max_edge_utilization=0.828 total_traversals=6474 buffer_exploded=1 load_exceeded_capacity=0
Edge (15 -> 10) dst_input_port=7 max_buffer_ratio=1 buffer_over_90_fraction=0.0434112 buffer_full_fraction=0.0434112 max_full_streak=5 edge_capacity=0.222222 max_edge_load=0.18 max_edge_utilization=0.81 total_traversals=5958 buffer_exploded=1 load_exceeded_capacity=0
Edge (15 -> 11) dst_input_port=7 max_buffer_ratio=1 buffer_over_90_fraction=0.051189 buffer_full_fraction=0.051189 max_full_streak=6 edge_capacity=0.222222 max_edge_load=0.181 max_edge_utilization=0.8145 total_traversals=6004 buffer_exploded=1 load_exceeded_capacity=0
Edge (15 -> 12) dst_input_port=7 max_buffer_ratio=1 buffer_over_90_fraction=0.0585249 buffer_full_fraction=0.0585249 max_full_streak=5 edge_capacity=0.222222 max_edge_load=0.183 max_edge_utilization=0.8235 total_traversals=6068 buffer_exploded=1 load_exceeded_capacity=0
Edge (15 -> 13) dst_input_port=7 max_buffer_ratio=1 buffer_over_90_fraction=0.0247357 buffer_full_fraction=0.0247357 max_full_streak=6 edge_capacity=0.222222 max_edge_load=0.183 max_edge_utilization=0.8235 total_traversals=5940 buffer_exploded=1 load_exceeded_capacity=0
Edge (15 -> 14) dst_input_port=7 max_buffer_ratio=1 buffer_over_90_fraction=0.0404666 buffer_full_fraction=0.0404666 max_full_streak=6 edge_capacity=0.222222 max_edge_load=0.18 max_edge_utilization=0.81 total_traversals=6014 buffer_exploded=1 load_exceeded_capacity=0
Edge (15 -> 16) dst_input_port=8 max_buffer_ratio=1 buffer_over_90_fraction=0.0481476 buffer_full_fraction=0.0481476 max_full_streak=6 edge_capacity=0.222222 max_edge_load=0.182 max_edge_utilization=0.819 total_traversals=5972 buffer_exploded=1 load_exceeded_capacity=0
Edge (15 -> 17) dst_input_port=8 max_buffer_ratio=1 buffer_over_90_fraction=0.0196818 buffer_full_fraction=0.0196818 max_full_streak=5 edge_capacity=0.222222 max_edge_load=0.182 max_edge_utilization=0.819 total_traversals=5962 buffer_exploded=1 load_exceeded_capacity=0
Edge (15 -> 33) dst_input_port=0 max_buffer_ratio=1 buffer_over_90_fraction=0.00161189 buffer_full_fraction=0.00161189 max_full_streak=2 edge_capacity=1 max_edge_load=0.271 max_edge_utilization=0.271 total_traversals=8839 buffer_exploded=1 load_exceeded_capacity=0
Edge (16 -> 7) dst_input_port=0 max_buffer_ratio=1 buffer_over_90_fraction=0.00137349 buffer_full_fraction=0.00137349 max_full_streak=2 edge_capacity=1 max_edge_load=0.269 max_edge_utilization=0.269 total_traversals=8889 buffer_exploded=1 load_exceeded_capacity=0
Edge (16 -> 9) dst_input_port=8 max_buffer_ratio=1 buffer_over_90_fraction=0.0404323 buffer_full_fraction=0.0404323 max_full_streak=6 edge_capacity=0.222222 max_edge_load=0.182 max_edge_utilization=0.819 total_traversals=5991 buffer_exploded=1 load_exceeded_capacity=0
Edge (16 -> 10) dst_input_port=8 max_buffer_ratio=1 buffer_over_90_fraction=0.0362359 buffer_full_fraction=0.0362359 max_full_streak=4 edge_capacity=0.222222 max_edge_load=0.183 max_edge_utilization=0.8235 total_traversals=5913 buffer_exploded=1 load_exceeded_capacity=0
Edge (16 -> 11) dst_input_port=8 max_buffer_ratio=1 buffer_over_90_fraction=0.0654601 buffer_full_fraction=0.0654601 max_full_streak=5 edge_capacity=0.222222 max_edge_load=0.181 max_edge_utilization=0.8145 total_traversals=5959 buffer_exploded=1 load_exceeded_capacity=0
Edge (16 -> 12) dst_input_port=8 max_buffer_ratio=1 buffer_over_90_fraction=0.0485663 buffer_full_fraction=0.0485663 max_full_streak=5 edge_capacity=0.222222 max_edge_load=0.182 max_edge_utilization=0.819 total_traversals=6022 buffer_exploded=1 load_exceeded_capacity=0
Edge (16 -> 13) dst_input_port=8 max_buffer_ratio=1 buffer_over_90_fraction=0.0436458 buffer_full_fraction=0.0436458 max_full_streak=6 edge_capacity=0.222222 max_edge_load=0.182 max_edge_utilization=0.819 total_traversals=5896 buffer_exploded=1 load_exceeded_capacity=0
Edge (16 -> 14) dst_input_port=8 max_buffer_ratio=1 buffer_over_90_fraction=0.0704482 buffer_full_fraction=0.0704482 max_full_streak=6 edge_capacity=0.222222 max_edge_load=0.182 max_edge_utilization=0.819 total_traversals=5970 buffer_exploded=1 load_exceeded_capacity=0
Edge (16 -> 15) dst_input_port=8 max_buffer_ratio=1 buffer_over_90_fraction=0.0594999 buffer_full_fraction=0.0594999 max_full_streak=5 edge_capacity=0.222222 max_edge_load=0.182 max_edge_utilization=0.819 total_traversals=6021 buffer_exploded=1 load_exceeded_capacity=0
Edge (16 -> 17) dst_input_port=9 max_buffer_ratio=1 buffer_over_90_fraction=0.037479 buffer_full_fraction=0.037479 max_full_streak=5 edge_capacity=0.222222 max_edge_load=0.183 max_edge_utilization=0.8235 total_traversals=5918 buffer_exploded=1 load_exceeded_capacity=0
Edge (16 -> 34) dst_input_port=0 max_buffer_ratio=1 buffer_over_90_fraction=0.000227934 buffer_full_fraction=0.000227934 max_full_streak=1 edge_capacity=1 max_edge_load=0.271 max_edge_utilization=0.271 total_traversals=9750 buffer_exploded=1 load_exceeded_capacity=0
Edge (17 -> 8) dst_input_port=0 max_buffer_ratio=1 buffer_over_90_fraction=0.00220905 buffer_full_fraction=0.00220905 max_full_streak=1 edge_capacity=1 max_edge_load=0.269 max_edge_utilization=0.269 total_traversals=10048 buffer_exploded=1 load_exceeded_capacity=0
Edge (17 -> 9) dst_input_port=9 max_buffer_ratio=1 buffer_over_90_fraction=0.0387021 buffer_full_fraction=0.0387021 max_full_streak=5 edge_capacity=0.222222 max_edge_load=0.182 max_edge_utilization=0.819 total_traversals=5954 buffer_exploded=1 load_exceeded_capacity=0
Edge (17 -> 10) dst_input_port=9 max_buffer_ratio=1 buffer_over_90_fraction=0.0425536 buffer_full_fraction=0.0425536 max_full_streak=6 edge_capacity=0.222222 max_edge_load=0.18 max_edge_utilization=0.81 total_traversals=5877 buffer_exploded=1 load_exceeded_capacity=0
Edge (17 -> 11) dst_input_port=9 max_buffer_ratio=1 buffer_over_90_fraction=0.0285664 buffer_full_fraction=0.0285664 max_full_streak=5 edge_capacity=0.222222 max_edge_load=0.181 max_edge_utilization=0.8145 total_traversals=5922 buffer_exploded=1 load_exceeded_capacity=0
Edge (17 -> 12) dst_input_port=9 max_buffer_ratio=1 buffer_over_90_fraction=0.0594322 buffer_full_fraction=0.0594322 max_full_streak=6 edge_capacity=0.222222 max_edge_load=0.182 max_edge_utilization=0.819 total_traversals=5985 buffer_exploded=1 load_exceeded_capacity=0
Edge (17 -> 13) dst_input_port=9 max_buffer_ratio=1 buffer_over_90_fraction=0.0486145 buffer_full_fraction=0.0486145 max_full_streak=5 edge_capacity=0.222222 max_edge_load=0.184 max_edge_utilization=0.828 total_traversals=5859 buffer_exploded=1 load_exceeded_capacity=0
Edge (17 -> 14) dst_input_port=9 max_buffer_ratio=1 buffer_over_90_fraction=0.0478474 buffer_full_fraction=0.0478474 max_full_streak=6 edge_capacity=0.222222 max_edge_load=0.181 max_edge_utilization=0.8145 total_traversals=5932 buffer_exploded=1 load_exceeded_capacity=0
Edge (17 -> 15) dst_input_port=9 max_buffer_ratio=1 buffer_over_90_fraction=0.0372536 buffer_full_fraction=0.0372536 max_full_streak=5 edge_capacity=0.222222 max_edge_load=0.181 max_edge_utilization=0.8145 total_traversals=5984 buffer_exploded=1 load_exceeded_capacity=0
Edge (17 -> 16) dst_input_port=9 max_buffer_ratio=1 buffer_over_90_fraction=0.0482644 buffer_full_fraction=0.0482644 max_full_streak=7 edge_capacity=0.222222 max_edge_load=0.182 max_edge_utilization=0.819 total_traversals=5891 buffer_exploded=1 load_exceeded_capacity=0
Edge (17 -> 35) dst_input_port=0 max_buffer_ratio=1 buffer_over_90_fraction=0.00112086 buffer_full_fraction=0.00112086 max_full_streak=1 edge_capacity=1 max_edge_load=0.272 max_edge_utilization=0.272 total_traversals=8838 buffer_exploded=1 load_exceeded_capacity=0
Edge (18 -> 0) dst_input_port=1 max_buffer_ratio=1 buffer_over_90_fraction=0.00249905 buffer_full_fraction=0.00249905 max_full_streak=2 edge_capacity=1 max_edge_load=0.272 max_edge_utilization=0.272 total_traversals=8800 buffer_exploded=1 load_exceeded_capacity=0
Edge (18 -> 19) dst_input_port=2 max_buffer_ratio=1 buffer_over_90_fraction=0.0548233 buffer_full_fraction=0.0548233 max_full_streak=5 edge_capacity=0.222222 max_edge_load=0.183 max_edge_utilization=0.8235 total_traversals=5969 buffer_exploded=1 load_exceeded_capacity=0
Edge (18 -> 20) dst_input_port=2 max_buffer_ratio=1 buffer_over_90_fraction=0.0378081 buffer_full_fraction=0.0378081 max_full_streak=5 edge_capacity=0.222222 max_edge_load=0.184 max_edge_utilization=0.828 total_traversals=5971 buffer_exploded=1 load_exceeded_capacity=0
Edge (18 -> 21) dst_input_port=2 max_buffer_ratio=1 buffer_over_90_fraction=0.0329202 buffer_full_fraction=0.0329202 max_full_streak=5 edge_capacity=0.222222 max_edge_load=0.185 max_edge_utilization=0.8325 total_traversals=6633 buffer_exploded=1 load_exceeded_capacity=0
Edge (18 -> 22) dst_input_port=2 max_buffer_ratio=1 buffer_over_90_fraction=0.0354159 buffer_full_fraction=0.0354159 max_full_streak=7 edge_capacity=0.222222 max_edge_load=0.183 max_edge_utilization=0.8235 total_traversals=5941 buffer_exploded=1 load_exceeded_capacity=0
[...]
Edge (28 -> 34) dst_input_port=3 max_buffer_ratio=1 buffer_over_90_fraction=0.0116798 buffer_full_fraction=0.0116798 max_full_streak=5 edge_capacity=0.222222 max_edge_load=0.184 max_edge_utilization=0.828 total_traversals=5930 buffer_exploded=1 load_exceeded_capacity=0
Edge (28 -> 35) dst_input_port=3 max_buffer_ratio=1 buffer_over_90_fraction=0.0497709 buffer_full_fraction=0.0497709 max_full_streak=6 edge_capacity=0.222222 max_edge_load=0.183 max_edge_utilization=0.8235 total_traversals=5857 buffer_exploded=1 load_exceeded_capacity=0
Edge (29 -> 11) dst_input_port=1 max_buffer_ratio=1 buffer_over_90_fraction=0.000753778 buffer_full_fraction=0.000753778 max_full_streak=2 edge_capacity=1 max_edge_load=0.269 max_edge_utilization=0.269 total_traversals=9720 buffer_exploded=1 load_exceeded_capacity=0
Edge (29 -> 20) dst_input_port=1 max_buffer_ratio=1 buffer_over_90_fraction=0.00139539 buffer_full_fraction=0.00139539 max_full_streak=1 edge_capacity=1 max_edge_load=0.27 max_edge_utilization=0.27 total_traversals=8784 buffer_exploded=1 load_exceeded_capacity=0
Edge (29 -> 27) dst_input_port=3 max_buffer_ratio=1 buffer_over_90_fraction=0.0422325 buffer_full_fraction=0.0422325 max_full_streak=5 edge_capacity=0.222222 max_edge_load=0.18 max_edge_utilization=0.81 total_traversals=5960 buffer_exploded=1 load_exceeded_capacity=0
Edge (29 -> 28) dst_input_port=3 max_buffer_ratio=1 buffer_over_90_fraction=0.0215062 buffer_full_fraction=0.0215062 max_full_streak=5 edge_capacity=0.222222 max_edge_load=0.182 max_edge_utilization=0.819 total_traversals=5937 buffer_exploded=1 load_exceeded_capacity=0
Edge (29 -> 30) dst_input_port=4 max_buffer_ratio=1 buffer_over_90_fraction=0.0301985 buffer_full_fraction=0.0301985 max_full_streak=6 edge_capacity=0.222222 max_edge_load=0.18 max_edge_utilization=0.81 total_traversals=5969 buffer_exploded=1 load_exceeded_capacity=0
Edge (29 -> 31) dst_input_port=4 max_buffer_ratio=1 buffer_over_90_fraction=0.0504827 buffer_full_fraction=0.0504827 max_full_streak=5 edge_capacity=0.222222 max_edge_load=0.181 max_edge_utilization=0.8145 total_traversals=5902 buffer_exploded=1 load_exceeded_capacity=0
Edge (29 -> 32) dst_input_port=4 max_buffer_ratio=1 buffer_over_90_fraction=0.0407415 buffer_full_fraction=0.0407415 max_full_streak=6 edge_capacity=0.222222 max_edge_load=0.181 max_edge_utilization=0.8145 total_traversals=5926 buffer_exploded=1 load_exceeded_capacity=0
Edge (29 -> 33) dst_input_port=4 max_buffer_ratio=1 buffer_over_90_fraction=0.0715215 buffer_full_fraction=0.0715215 max_full_streak=6 edge_capacity=0.222222 max_edge_load=0.179 max_edge_utilization=0.8055 total_traversals=5950 buffer_exploded=1 load_exceeded_capacity=0
Edge (29 -> 34) dst_input_port=4 max_buffer_ratio=1 buffer_over_90_fraction=0.0666731 buffer_full_fraction=0.0666731 max_full_streak=6 edge_capacity=0.222222 max_edge_load=0.181 max_edge_utilization=0.8145 total_traversals=5959 buffer_exploded=1 load_exceeded_capacity=0
Edge (29 -> 35) dst_input_port=4 max_buffer_ratio=1 buffer_over_90_fraction=0.0143101 buffer_full_fraction=0.0143101 max_full_streak=5 edge_capacity=0.222222 max_edge_load=0.182 max_edge_utilization=0.819 total_traversals=5887 buffer_exploded=1 load_exceeded_capacity=0
Edge (30 -> 12) dst_input_port=1 max_buffer_ratio=1 buffer_over_90_fraction=0.00114368 buffer_full_fraction=0.00114368 max_full_streak=1 edge_capacity=1 max_edge_load=0.27 max_edge_utilization=0.27 total_traversals=8929 buffer_exploded=1 load_exceeded_capacity=0
Edge (30 -> 21) dst_input_port=1 max_buffer_ratio=1 buffer_over_90_fraction=0.00135629 buffer_full_fraction=0.00135629 max_full_streak=2 edge_capacity=1 max_edge_load=0.269 max_edge_utilization=0.269 total_traversals=8784 buffer_exploded=1 load_exceeded_capacity=0
Edge (30 -> 27) dst_input_port=4 max_buffer_ratio=1 buffer_over_90_fraction=0.0754916 buffer_full_fraction=0.0754916 max_full_streak=6 edge_capacity=0.222222 max_edge_load=0.18 max_edge_utilization=0.81 total_traversals=5938 buffer_exploded=1 load_exceeded_capacity=0
Edge (30 -> 28) dst_input_port=4 max_buffer_ratio=1 buffer_over_90_fraction=0.0397721 buffer_full_fraction=0.0397721 max_full_streak=6 edge_capacity=0.222222 max_edge_load=0.181 max_edge_utilization=0.8145 total_traversals=5916 buffer_exploded=1 load_exceeded_capacity=0
Edge (30 -> 29) dst_input_port=4 max_buffer_ratio=1 buffer_over_90_fraction=0.0307739 buffer_full_fraction=0.0307739 max_full_streak=5 edge_capacity=0.222222 max_edge_load=0.183 max_edge_utilization=0.8235 total_traversals=5938 buffer_exploded=1 load_exceeded_capacity=0
Edge (30 -> 31) dst_input_port=5 max_buffer_ratio=1 buffer_over_90_fraction=0.0494217 buffer_full_fraction=0.0494217 max_full_streak=6 edge_capacity=0.222222 max_edge_load=0.182 max_edge_utilization=0.819 total_traversals=5879 buffer_exploded=1 load_exceeded_capacity=0
Edge (30 -> 32) dst_input_port=5 max_buffer_ratio=1 buffer_over_90_fraction=0.0315553 buffer_full_fraction=0.0315553 max_full_streak=4 edge_capacity=0.222222 max_edge_load=0.18 max_edge_utilization=0.81 total_traversals=5904 buffer_exploded=1 load_exceeded_capacity=0
Edge (30 -> 33) dst_input_port=5 max_buffer_ratio=1 buffer_over_90_fraction=0.0394931 buffer_full_fraction=0.0394931 max_full_streak=6 edge_capacity=0.222222 max_edge_load=0.181 max_edge_utilization=0.8145 total_traversals=6690 buffer_exploded=1 load_exceeded_capacity=0
Edge (30 -> 34) dst_input_port=5 max_buffer_ratio=1 buffer_over_90_fraction=0.0469165 buffer_full_fraction=0.0469165 max_full_streak=5 edge_capacity=0.222222 max_edge_load=0.182 max_edge_utilization=0.819 total_traversals=5937 buffer_exploded=1 load_exceeded_capacity=0
Edge (30 -> 35) dst_input_port=5 max_buffer_ratio=1 buffer_over_90_fraction=0.0612474 buffer_full_fraction=0.0612474 max_full_streak=5 edge_capacity=0.222222 max_edge_load=0.18 max_edge_utilization=0.81 total_traversals=5865 buffer_exploded=1 load_exceeded_capacity=0
Edge (31 -> 13) dst_input_port=1 max_buffer_ratio=1 buffer_over_90_fraction=0.000678584 buffer_full_fraction=0.000678584 max_full_streak=1 edge_capacity=1 max_edge_load=0.269 max_edge_utilization=0.269 total_traversals=8928 buffer_exploded=1 load_exceeded_capacity=0
Edge (31 -> 22) dst_input_port=1 max_buffer_ratio=1 buffer_over_90_fraction=0.000753804 buffer_full_fraction=0.000753804 max_full_streak=1 edge_capacity=1 max_edge_load=0.27 max_edge_utilization=0.27 total_traversals=10010 buffer_exploded=1 load_exceeded_capacity=0
Edge (31 -> 27) dst_input_port=5 max_buffer_ratio=1 buffer_over_90_fraction=0.0700689 buffer_full_fraction=0.0700689 max_full_streak=6 edge_capacity=0.222222 max_edge_load=0.18 max_edge_utilization=0.81 total_traversals=5902 buffer_exploded=1 load_exceeded_capacity=0
Edge (31 -> 28) dst_input_port=5 max_buffer_ratio=1 buffer_over_90_fraction=0.0431817 buffer_full_fraction=0.0431817 max_full_streak=5 edge_capacity=0.222222 max_edge_load=0.18 max_edge_utilization=0.81 total_traversals=5880 buffer_exploded=1 load_exceeded_capacity=0
Edge (31 -> 29) dst_input_port=5 max_buffer_ratio=1 buffer_over_90_fraction=0.0469239 buffer_full_fraction=0.0469239 max_full_streak=6 edge_capacity=0.222222 max_edge_load=0.181 max_edge_utilization=0.8145 total_traversals=5903 buffer_exploded=1 load_exceeded_capacity=0
Edge (31 -> 30) dst_input_port=5 max_buffer_ratio=1 buffer_over_90_fraction=0.047647 buffer_full_fraction=0.047647 max_full_streak=5 edge_capacity=0.222222 max_edge_load=0.181 max_edge_utilization=0.8145 total_traversals=5912 buffer_exploded=1 load_exceeded_capacity=0
Edge (31 -> 32) dst_input_port=6 max_buffer_ratio=1 buffer_over_90_fraction=0.0535771 buffer_full_fraction=0.0535771 max_full_streak=6 edge_capacity=0.222222 max_edge_load=0.181 max_edge_utilization=0.8145 total_traversals=5869 buffer_exploded=1 load_exceeded_capacity=0
Edge (31 -> 33) dst_input_port=6 max_buffer_ratio=1 buffer_over_90_fraction=0.0731493 buffer_full_fraction=0.0731493 max_full_streak=6 edge_capacity=0.222222 max_edge_load=0.18 max_edge_utilization=0.81 total_traversals=5893 buffer_exploded=1 load_exceeded_capacity=0
Edge (31 -> 34) dst_input_port=6 max_buffer_ratio=1 buffer_over_90_fraction=0.0115793 buffer_full_fraction=0.0115793 max_full_streak=5 edge_capacity=0.222222 max_edge_load=0.181 max_edge_utilization=0.8145 total_traversals=5902 buffer_exploded=1 load_exceeded_capacity=0
Edge (31 -> 35) dst_input_port=6 max_buffer_ratio=1 buffer_over_90_fraction=0.0411401 buffer_full_fraction=0.0411401 max_full_streak=6 edge_capacity=0.222222 max_edge_load=0.179 max_edge_utilization=0.8055 total_traversals=5829 buffer_exploded=1 load_exceeded_capacity=0
Edge (32 -> 14) dst_input_port=1 max_buffer_ratio=1 buffer_over_90_fraction=0.000456084 buffer_full_fraction=0.000456084 max_full_streak=1 edge_capacity=1 max_edge_load=0.27 max_edge_utilization=0.27 total_traversals=9483 buffer_exploded=1 load_exceeded_capacity=0
Edge (32 -> 23) dst_input_port=1 max_buffer_ratio=1 buffer_over_90_fraction=0.00121901 buffer_full_fraction=0.00121901 max_full_streak=1 edge_capacity=1 max_edge_load=0.27 max_edge_utilization=0.27 total_traversals=8784 buffer_exploded=1 load_exceeded_capacity=0
Edge (32 -> 27) dst_input_port=6 max_buffer_ratio=1 buffer_over_90_fraction=0.0385741 buffer_full_fraction=0.0385741 max_full_streak=5 edge_capacity=0.222222 max_edge_load=0.181 max_edge_utilization=0.8145 total_traversals=5970 buffer_exploded=1 load_exceeded_capacity=0
Edge (32 -> 28) dst_input_port=6 max_buffer_ratio=1 buffer_over_90_fraction=0.0463489 buffer_full_fraction=0.0463489 max_full_streak=5 edge_capacity=0.222222 max_edge_load=0.18 max_edge_utilization=0.81 total_traversals=5948 buffer_exploded=1 load_exceeded_capacity=0
Edge (32 -> 29) dst_input_port=6 max_buffer_ratio=1 buffer_over_90_fraction=0.0310466 buffer_full_fraction=0.0310466 max_full_streak=6 edge_capacity=0.222222 max_edge_load=0.18 max_edge_utilization=0.81 total_traversals=5971 buffer_exploded=1 load_exceeded_capacity=0
Edge (32 -> 30) dst_input_port=6 max_buffer_ratio=1 buffer_over_90_fraction=0.0485208 buffer_full_fraction=0.0485208 max_full_streak=4 edge_capacity=0.222222 max_edge_load=0.18 max_edge_utilization=0.81 total_traversals=5980 buffer_exploded=1 load_exceeded_capacity=0
Edge (32 -> 31) dst_input_port=6 max_buffer_ratio=1 buffer_over_90_fraction=0.0525837 buffer_full_fraction=0.0525837 max_full_streak=8 edge_capacity=0.222222 max_edge_load=0.18 max_edge_utilization=0.81 total_traversals=5912 buffer_exploded=1 load_exceeded_capacity=0
Edge (32 -> 33) dst_input_port=7 max_buffer_ratio=1 buffer_over_90_fraction=0.0561077 buffer_full_fraction=0.0561077 max_full_streak=5 edge_capacity=0.222222 max_edge_load=0.179 max_edge_utilization=0.8055 total_traversals=5961 buffer_exploded=1 load_exceeded_capacity=0
Edge (32 -> 34) dst_input_port=7 max_buffer_ratio=1 buffer_over_90_fraction=0.0515258 buffer_full_fraction=0.0515258 max_full_streak=5 edge_capacity=0.222222 max_edge_load=0.182 max_edge_utilization=0.819 total_traversals=5970 buffer_exploded=1 load_exceeded_capacity=0
Edge (32 -> 35) dst_input_port=7 max_buffer_ratio=1 buffer_over_90_fraction=0.0354787 buffer_full_fraction=0.0354787 max_full_streak=6 edge_capacity=0.222222 max_edge_load=0.181 max_edge_utilization=0.8145 total_traversals=5896 buffer_exploded=1 load_exceeded_capacity=0
Edge (33 -> 15) dst_input_port=1 max_buffer_ratio=1 buffer_over_90_fraction=0.00116462 buffer_full_fraction=0.00116462 max_full_streak=1 edge_capacity=1 max_edge_load=0.269 max_edge_utilization=0.269 total_traversals=8928 buffer_exploded=1 load_exceeded_capacity=0
Edge (33 -> 24) dst_input_port=1 max_buffer_ratio=1 buffer_over_90_fraction=0.000766886 buffer_full_fraction=0.000766886 max_full_streak=1 edge_capacity=1 max_edge_load=0.27 max_edge_utilization=0.27 total_traversals=8784 buffer_exploded=1 load_exceeded_capacity=0
Edge (33 -> 27) dst_input_port=7 max_buffer_ratio=1 buffer_over_90_fraction=0.0475531 buffer_full_fraction=0.0475531 max_full_streak=5 edge_capacity=0.222222 max_edge_load=0.182 max_edge_utilization=0.819 total_traversals=6652 buffer_exploded=1 load_exceeded_capacity=0
Edge (33 -> 28) dst_input_port=7 max_buffer_ratio=1 buffer_over_90_fraction=0.0277778 buffer_full_fraction=0.0277778 max_full_streak=4 edge_capacity=0.222222 max_edge_load=0.182 max_edge_utilization=0.819 total_traversals=5925 buffer_exploded=1 load_exceeded_capacity=0
Edge (33 -> 29) dst_input_port=7 max_buffer_ratio=1 buffer_over_90_fraction=0.0547651 buffer_full_fraction=0.0547651 max_full_streak=5 edge_capacity=0.222222 max_edge_load=0.181 max_edge_utilization=0.8145 total_traversals=5946 buffer_exploded=1 load_exceeded_capacity=0
Edge (33 -> 30) dst_input_port=7 max_buffer_ratio=1 buffer_over_90_fraction=0.0488644 buffer_full_fraction=0.0488644 max_full_streak=5 edge_capacity=0.222222 max_edge_load=0.181 max_edge_utilization=0.8145 total_traversals=5956 buffer_exploded=1 load_exceeded_capacity=0
Edge (33 -> 31) dst_input_port=7 max_buffer_ratio=1 buffer_over_90_fraction=0.0259598 buffer_full_fraction=0.0259598 max_full_streak=6 edge_capacity=0.222222 max_edge_load=0.181 max_edge_utilization=0.8145 total_traversals=5888 buffer_exploded=1 load_exceeded_capacity=0
Edge (33 -> 32) dst_input_port=7 max_buffer_ratio=1 buffer_over_90_fraction=0.0376605 buffer_full_fraction=0.0376605 max_full_streak=6 edge_capacity=0.222222 max_edge_load=0.18 max_edge_utilization=0.81 total_traversals=5913 buffer_exploded=1 load_exceeded_capacity=0
Edge (33 -> 34) dst_input_port=8 max_buffer_ratio=1 buffer_over_90_fraction=0.0666126 buffer_full_fraction=0.0666126 max_full_streak=7 edge_capacity=0.222222 max_edge_load=0.184 max_edge_utilization=0.828 total_traversals=5946 buffer_exploded=1 load_exceeded_capacity=0
Edge (33 -> 35) dst_input_port=8 max_buffer_ratio=1 buffer_over_90_fraction=0.044774 buffer_full_fraction=0.044774 max_full_streak=7 edge_capacity=0.222222 max_edge_load=0.18 max_edge_utilization=0.81 total_traversals=5873 buffer_exploded=1 load_exceeded_capacity=0
Edge (34 -> 16) dst_input_port=1 max_buffer_ratio=1 buffer_over_90_fraction=0.00132036 buffer_full_fraction=0.00132036 max_full_streak=1 edge_capacity=1 max_edge_load=0.271 max_edge_utilization=0.271 total_traversals=8928 buffer_exploded=1 load_exceeded_capacity=0
Edge (34 -> 25) dst_input_port=1 max_buffer_ratio=1 buffer_over_90_fraction=0.00024542 buffer_full_fraction=0.00024542 max_full_streak=1 edge_capacity=1 max_edge_load=0.284 max_edge_utilization=0.284 total_traversals=10318 buffer_exploded=1 load_exceeded_capacity=0
Edge (34 -> 27) dst_input_port=8 max_buffer_ratio=1 buffer_over_90_fraction=0.048991 buffer_full_fraction=0.048991 max_full_streak=6 edge_capacity=0.222222 max_edge_load=0.181 max_edge_utilization=0.8145 total_traversals=5872 buffer_exploded=1 load_exceeded_capacity=0
Edge (34 -> 28) dst_input_port=8 max_buffer_ratio=1 buffer_over_90_fraction=0.0619359 buffer_full_fraction=0.0619359 max_full_streak=5 edge_capacity=0.222222 max_edge_load=0.183 max_edge_utilization=0.8235 total_traversals=5849 buffer_exploded=1 load_exceeded_capacity=0
Edge (34 -> 29) dst_input_port=8 max_buffer_ratio=1 buffer_over_90_fraction=0.0364554 buffer_full_fraction=0.0364554 max_full_streak=6 edge_capacity=0.222222 max_edge_load=0.183 max_edge_utilization=0.8235 total_traversals=5871 buffer_exploded=1 load_exceeded_capacity=0
Edge (34 -> 30) dst_input_port=8 max_buffer_ratio=1 buffer_over_90_fraction=0.0394646 buffer_full_fraction=0.0394646 max_full_streak=6 edge_capacity=0.222222 max_edge_load=0.181 max_edge_utilization=0.8145 total_traversals=5881 buffer_exploded=1 load_exceeded_capacity=0
Edge (34 -> 31) dst_input_port=8 max_buffer_ratio=1 buffer_over_90_fraction=0.0516868 buffer_full_fraction=0.0516868 max_full_streak=6 edge_capacity=0.222222 max_edge_load=0.181 max_edge_utilization=0.8145 total_traversals=5813 buffer_exploded=1 load_exceeded_capacity=0
Edge (34 -> 32) dst_input_port=8 max_buffer_ratio=1 buffer_over_90_fraction=0.0341327 buffer_full_fraction=0.0341327 max_full_streak=6 edge_capacity=0.222222 max_edge_load=0.182 max_edge_utilization=0.819 total_traversals=5837 buffer_exploded=1 load_exceeded_capacity=0
Edge (34 -> 33) dst_input_port=8 max_buffer_ratio=1 buffer_over_90_fraction=0.0410221 buffer_full_fraction=0.0410221 max_full_streak=6 edge_capacity=0.222222 max_edge_load=0.18 max_edge_utilization=0.81 total_traversals=5862 buffer_exploded=1 load_exceeded_capacity=0
Edge (34 -> 35) dst_input_port=9 max_buffer_ratio=1 buffer_over_90_fraction=0.0229917 buffer_full_fraction=0.0229917 max_full_streak=5 edge_capacity=0.222222 max_edge_load=0.18 max_edge_utilization=0.81 total_traversals=5798 buffer_exploded=1 load_exceeded_capacity=0
Edge (35 -> 17) dst_input_port=1 max_buffer_ratio=1 buffer_over_90_fraction=0.000350754 buffer_full_fraction=0.000350754 max_full_streak=1 edge_capacity=1 max_edge_load=0.27 max_edge_utilization=0.27 total_traversals=10028 buffer_exploded=1 load_exceeded_capacity=0
Edge (35 -> 26) dst_input_port=1 max_buffer_ratio=1 buffer_over_90_fraction=0.00135696 buffer_full_fraction=0.00135696 max_full_streak=1 edge_capacity=1 max_edge_load=0.27 max_edge_utilization=0.27 total_traversals=8782 buffer_exploded=1 load_exceeded_capacity=0
Edge (35 -> 27) dst_input_port=9 max_buffer_ratio=1 buffer_over_90_fraction=0.0390234 buffer_full_fraction=0.0390234 max_full_streak=5 edge_capacity=0.222222 max_edge_load=0.183 max_edge_utilization=0.8235 total_traversals=5919 buffer_exploded=1 load_exceeded_capacity=0
Edge (35 -> 28) dst_input_port=9 max_buffer_ratio=1 buffer_over_90_fraction=0.0620452 buffer_full_fraction=0.0620452 max_full_streak=5 edge_capacity=0.222222 max_edge_load=0.181 max_edge_utilization=0.8145 total_traversals=5896 buffer_exploded=1 load_exceeded_capacity=0
Edge (35 -> 29) dst_input_port=9 max_buffer_ratio=1 buffer_over_90_fraction=0.0623531 buffer_full_fraction=0.0623531 max_full_streak=5 edge_capacity=0.222222 max_edge_load=0.181 max_edge_utilization=0.8145 total_traversals=5919 buffer_exploded=1 load_exceeded_capacity=0
Edge (35 -> 30) dst_input_port=9 max_buffer_ratio=1 buffer_over_90_fraction=0.0667342 buffer_full_fraction=0.0667342 max_full_streak=6 edge_capacity=0.222222 max_edge_load=0.183 max_edge_utilization=0.8235 total_traversals=5929 buffer_exploded=1 load_exceeded_capacity=0
Edge (35 -> 31) dst_input_port=9 max_buffer_ratio=1 buffer_over_90_fraction=0.043921 buffer_full_fraction=0.043921 max_full_streak=5 edge_capacity=0.222222 max_edge_load=0.18 max_edge_utilization=0.81 total_traversals=5860 buffer_exploded=1 load_exceeded_capacity=0
Edge (35 -> 32) dst_input_port=9 max_buffer_ratio=1 buffer_over_90_fraction=0.0347848 buffer_full_fraction=0.0347848 max_full_streak=5 edge_capacity=0.222222 max_edge_load=0.182 max_edge_utilization=0.819 total_traversals=5884 buffer_exploded=1 load_exceeded_capacity=0
Edge (35 -> 33) dst_input_port=9 max_buffer_ratio=1 buffer_over_90_fraction=0.0665592 buffer_full_fraction=0.0665592 max_full_streak=6 edge_capacity=0.222222 max_edge_load=0.181 max_edge_utilization=0.8145 total_traversals=5909 buffer_exploded=1 load_exceeded_capacity=0
Edge (35 -> 34) dst_input_port=9 max_buffer_ratio=1 buffer_over_90_fraction=0.0537465 buffer_full_fraction=0.0537465 max_full_streak=8 edge_capacity=0.222222 max_edge_load=0.182 max_edge_utilization=0.819 total_traversals=5918 buffer_exploded=1 load_exceeded_capacity=0
Observed edge count = 360
Observed edge max buffer ratio = 1
Observed edge max load = 0.284
Observed edge max utilization = 0.8325
Observed edge avg over-0.9 buffer fraction = 0.0356724
Observed edge avg full-buffer fraction = 0.0356724
Observed edge max over-0.9 buffer fraction = 0.0844046
Observed edge max full-buffer fraction = 0.0844046
Observed edge worst full-buffer streak = 8
Observed edge exploded buffer count = 360
Observed edge exceeded capacity count = 0

