BEGIN Configuration File: D:\noc_huawei\noc\booksim2-noc_speedup_study\booksim2-noc_speedup_study\tests\data\results\dfm_n9_growth_scheduled_2overn_20260409\tmp_configs\dfm_dsl_s2202.config
num_vcs     = 24;
vc_buf_size = 16;
wait_for_tail_credit = 1;

vc_allocator = islip;
sw_allocator = islip;
alloc_iters  = 4;

credit_delay   = 2;
routing_delay  = 0;
vc_alloc_delay = 1;
sw_alloc_delay = 1;
st_final_delay = 1;

input_speedup     = 1;
output_speedup    = 1;
internal_speedup  = 1.0;

sim_type = latency;
latency_thres  = 100000.0;
sim_count      = 1;
queue_sample_period_cycles = 0;

topology = die_mesh_full;
dfm_tiles_per_die = 9;

dfm_hybrid_soft_threshold = 0.25;
dfm_hybrid_hard_threshold = 0.50;
dfm_hybrid_release_threshold = 0.18;
dfm_hybrid_congestion_alpha = 0.25;
dfm_hybrid_increase_step = 0.50;
dfm_hybrid_decrease_step = 0.06;
dfm_hybrid_capacity_guard_ratio = 0.98;
dfm_hybrid_rate_weight = 0.50;
dfm_hybrid_util_target = 0.98;
dfm_hybrid_util_gain = 0.60;
dfm_hybrid_epoch_cycles = 200;
dfm_hybrid_feedback_delay_per_hop = 1;

hybrid_edge_capacity = 1.0;
hybrid_stats_window_cycles = 1000;

packet_size = 1;
traffic = custom_perm;
custom_perm_array = {3,10,20,6,13,23,0,16,26,12,28,2,15,31,5,9,34,8,21,1,29,24,4,32,18,7,35,30,19,11,33,22,14,27,25,17};

injection_rate = 0.05;
dfm_hybrid_stats_window_cycles = 3000;
max_samples = 26;
scheduled_phase_cycles = {3000,3000,3000,3000,3000,3000,3000,3000,3000,3000,3000,3000,3000,3000,3000,3000,3000,3000};
sample_period = 3000;
routing_function = dfm_dsl;
warmup_periods = 2;
injection_process = scheduled;
scheduled_injection_rates = {0.05,0.1,0.15,0.2,0.25,0.3,0.35,0.4,0.45,0.5,0.55,0.6,0.65,0.7,0.75,0.8,0.8,0.8};
scheduled_default_phase_cycles = 3000;
perm_seed = 2202;
seed = 2202;

END Configuration File: D:\noc_huawei\noc\booksim2-noc_speedup_study\booksim2-noc_speedup_study\tests\data\results\dfm_n9_growth_scheduled_2overn_20260409\tmp_configs\dfm_dsl_s2202.config
Class 0:
Packet latency average = 15.908
	minimum = 10
	maximum = 23
	95th percentile = 18.5
	99th percentile = 21.5
Network latency average = 15.908
	minimum = 10
	maximum = 23
	95th percentile = 18.5
	99th percentile = 21.5
Slowest packet = 258
Flit latency average = 15.908
	minimum = 10
	maximum = 23
	95th percentile = 18.5
	99th percentile = 21.5
Slowest flit = 258
Fragmentation average = 0
	minimum = 0
	maximum = 0
Injected packet rate average = 0.0490648
	minimum = 0.042 (at node 7)
	maximum = 0.057 (at node 15)
Accepted packet rate average = 0.0488333
	minimum = 0.0416667 (at node 16)
	maximum = 0.0566667 (at node 9)
Injected flit rate average = 0.0490648
	minimum = 0.042 (at node 7)
	maximum = 0.057 (at node 15)
Accepted flit rate average= 0.0488333
	minimum = 0.0416667 (at node 16)
	maximum = 0.0566667 (at node 9)
Injected packet length average = 1
Accepted packet length average = 1
Total in-flight flits = 25 (0 measured)
====== Peak Queue Occupancy Statistics (Absolute Max) ======
  Overall Max VC Occupancy = 1
  Overall Max Buffer Occupancy = 2
latency change    = 1
throughput change = 1
Class 0:
Packet latency average = 16.0388
	minimum = 10
	maximum = 26
	95th percentile = 19.5
	99th percentile = 22.5
Network latency average = 16.0388
	minimum = 10
	maximum = 26
	95th percentile = 19.5
	99th percentile = 22.5
Slowest packet = 5774
Flit latency average = 16.0388
	minimum = 10
	maximum = 26
	95th percentile = 19.5
	99th percentile = 22.5
Slowest flit = 5774
Fragmentation average = 0
	minimum = 0
	maximum = 0
Injected packet rate average = 0.0739491
	minimum = 0.0626667 (at node 6)
	maximum = 0.0835 (at node 13)
Accepted packet rate average = 0.0736713
	minimum = 0.0623333 (at node 0)
	maximum = 0.0833333 (at node 31)
Injected flit rate average = 0.0739491
	minimum = 0.0626667 (at node 6)
	maximum = 0.0835 (at node 13)
Accepted flit rate average= 0.0736713
	minimum = 0.0623333 (at node 0)
	maximum = 0.0833333 (at node 31)
Injected packet length average = 1
Accepted packet length average = 1
Total in-flight flits = 60 (0 measured)
====== Peak Queue Occupancy Statistics (Absolute Max) ======
  Overall Max VC Occupancy = 1
  Overall Max Buffer Occupancy = 3
latency change    = 0.00815112
throughput change = 0.337146
Warmed up ...Time used is 6000 cycles
Class 0:
Packet latency average = 16.2185
	minimum = 10
	maximum = 27
	95th percentile = 21.5
	99th percentile = 23.5
Network latency average = 16.2185
	minimum = 10
	maximum = 27
	95th percentile = 21.5
	99th percentile = 23.5
Slowest packet = 21459
Flit latency average = 16.2185
	minimum = 10
	maximum = 27
	95th percentile = 21.5
	99th percentile = 23.5
Slowest flit = 21459
Fragmentation average = 0
	minimum = 0
	maximum = 0
Injected packet rate average = 0.151074
	minimum = 0.135 (at node 20)
	maximum = 0.168333 (at node 10)
Accepted packet rate average = 0.150565
	minimum = 0.135 (at node 29)
	maximum = 0.167333 (at node 28)
Injected flit rate average = 0.151074
	minimum = 0.135 (at node 20)
	maximum = 0.168333 (at node 10)
Accepted flit rate average= 0.150565
	minimum = 0.135 (at node 29)
	maximum = 0.167333 (at node 28)
Injected packet length average = 1
Accepted packet length average = 1
Total in-flight flits = 115 (115 measured)
====== Peak Queue Occupancy Statistics (Absolute Max) ======
  Overall Max VC Occupancy = 1
  Overall Max Buffer Occupancy = 3
latency change    = 0.0110819
throughput change = 0.5107
Class 0:
Packet latency average = 16.3194
	minimum = 10
	maximum = 27
	95th percentile = 21.5
	99th percentile = 23.5
Network latency average = 16.3194
	minimum = 10
	maximum = 27
	95th percentile = 21.5
	99th percentile = 23.5
Slowest packet = 21459
Flit latency average = 16.3193
	minimum = 10
	maximum = 27
	95th percentile = 21.5
	99th percentile = 23.5
Slowest flit = 21459
Fragmentation average = 0
	minimum = 0
	maximum = 0
Injected packet rate average = 0.175509
	minimum = 0.1635 (at node 18)
	maximum = 0.1875 (at node 15)
Accepted packet rate average = 0.175245
	minimum = 0.163 (at node 21)
	maximum = 0.187167 (at node 9)
Injected flit rate average = 0.175509
	minimum = 0.1635 (at node 18)
	maximum = 0.1875 (at node 15)
Accepted flit rate average= 0.175245
	minimum = 0.163 (at node 21)
	maximum = 0.187167 (at node 9)
Injected packet length average = 1
Accepted packet length average = 1
Total in-flight flits = 117 (117 measured)
====== Peak Queue Occupancy Statistics (Absolute Max) ======
  Overall Max VC Occupancy = 1
  Overall Max Buffer Occupancy = 3
latency change    = 0.00618399
throughput change = 0.140834
Class 0:
Packet latency average = 16.421
	minimum = 10
	maximum = 29
	95th percentile = 21.5
	99th percentile = 23.5
Network latency average = 16.421
	minimum = 10
	maximum = 29
	95th percentile = 21.5
	99th percentile = 23.5
Slowest packet = 66708
Flit latency average = 16.4208
	minimum = 10
	maximum = 29
	95th percentile = 21.5
	99th percentile = 23.5
Slowest flit = 66708
Fragmentation average = 0
	minimum = 0
	maximum = 0
Injected packet rate average = 0.200049
	minimum = 0.193444 (at node 9)
	maximum = 0.210778 (at node 15)
Accepted packet rate average = 0.199799
	minimum = 0.193222 (at node 21)
	maximum = 0.210889 (at node 9)
Injected flit rate average = 0.200049
	minimum = 0.193444 (at node 9)
	maximum = 0.210778 (at node 15)
Accepted flit rate average= 0.199799
	minimum = 0.193222 (at node 21)
	maximum = 0.210889 (at node 9)
Injected packet length average = 1
Accepted packet length average = 1
Total in-flight flits = 141 (141 measured)
====== Peak Queue Occupancy Statistics (Absolute Max) ======
  Overall Max VC Occupancy = 1
  Overall Max Buffer Occupancy = 3
latency change    = 0.00618369
throughput change = 0.122893
Class 0:
Packet latency average = 16.5305
	minimum = 10
	maximum = 30
	95th percentile = 22.5
	99th percentile = 23.5
Network latency average = 16.5305
	minimum = 10
	maximum = 30
	95th percentile = 22.5
	99th percentile = 23.5
Slowest packet = 84609
Flit latency average = 16.5303
	minimum = 10
	maximum = 30
	95th percentile = 22.5
	99th percentile = 23.5
Slowest flit = 84609
Fragmentation average = 0
	minimum = 0
	maximum = 0
Injected packet rate average = 0.225428
	minimum = 0.217667 (at node 18)
	maximum = 0.236083 (at node 29)
Accepted packet rate average = 0.225141
	minimum = 0.2175 (at node 21)
	maximum = 0.235833 (at node 11)
Injected flit rate average = 0.225428
	minimum = 0.217667 (at node 18)
	maximum = 0.236083 (at node 29)
Accepted flit rate average= 0.225141
	minimum = 0.2175 (at node 21)
	maximum = 0.235833 (at node 11)
Injected packet length average = 1
Accepted packet length average = 1
Total in-flight flits = 184 (184 measured)
====== Peak Queue Occupancy Statistics (Absolute Max) ======
  Overall Max VC Occupancy = 1
  Overall Max Buffer Occupancy = 3
latency change    = 0.00662484
throughput change = 0.11256
Class 0:
Packet latency average = 16.638
	minimum = 10
	maximum = 30
	95th percentile = 22.5
	99th percentile = 23.5
Network latency average = 16.638
	minimum = 10
	maximum = 30
	95th percentile = 22.5
	99th percentile = 23.5
Slowest packet = 84609
Flit latency average = 16.6379
	minimum = 10
	maximum = 30
	95th percentile = 22.5
	99th percentile = 23.5
Slowest flit = 84609
Fragmentation average = 0
	minimum = 0
	maximum = 0
Injected packet rate average = 0.250441
	minimum = 0.243 (at node 8)
	maximum = 0.2632 (at node 29)
Accepted packet rate average = 0.250133
	minimum = 0.242867 (at node 26)
	maximum = 0.262733 (at node 11)
Injected flit rate average = 0.250441
	minimum = 0.243 (at node 8)
	maximum = 0.2632 (at node 29)
Accepted flit rate average= 0.250133
	minimum = 0.242867 (at node 26)
	maximum = 0.262733 (at node 11)
Injected packet length average = 1
Accepted packet length average = 1
Total in-flight flits = 226 (226 measured)
====== Peak Queue Occupancy Statistics (Absolute Max) ======
  Overall Max VC Occupancy = 1
  Overall Max Buffer Occupancy = 3
latency change    = 0.00646524
throughput change = 0.0999152
Class 0:
Packet latency average = 16.748
	minimum = 10
	maximum = 33
	95th percentile = 22.5
	99th percentile = 24.5
Network latency average = 16.748
	minimum = 10
	maximum = 33
	95th percentile = 22.5
	99th percentile = 24.5
Slowest packet = 166854
Flit latency average = 16.7479
	minimum = 10
	maximum = 33
	95th percentile = 22.5
	99th percentile = 24.5
Slowest flit = 166854
Fragmentation average = 0
	minimum = 0
	maximum = 0
Injected packet rate average = 0.275145
	minimum = 0.266833 (at node 9)
	maximum = 0.285556 (at node 29)
Accepted packet rate average = 0.274863
	minimum = 0.266556 (at node 12)
	maximum = 0.285 (at node 11)
Injected flit rate average = 0.275145
	minimum = 0.266833 (at node 9)
	maximum = 0.285556 (at node 29)
Accepted flit rate average= 0.274863
	minimum = 0.266556 (at node 12)
	maximum = 0.285 (at node 11)
Injected packet length average = 1
Accepted packet length average = 1
Total in-flight flits = 243 (243 measured)
====== Peak Queue Occupancy Statistics (Absolute Max) ======
  Overall Max VC Occupancy = 1
  Overall Max Buffer Occupancy = 3
latency change    = 0.00656809
throughput change = 0.0899697
Class 0:
Packet latency average = 16.8502
	minimum = 10
	maximum = 33
	95th percentile = 22.5
	99th percentile = 24.5
Network latency average = 16.8502
	minimum = 10
	maximum = 33
	95th percentile = 22.5
	99th percentile = 24.5
Slowest packet = 166854
Flit latency average = 16.85
	minimum = 10
	maximum = 33
	95th percentile = 22.5
	99th percentile = 24.5
Slowest flit = 166854
Fragmentation average = 0
	minimum = 0
	maximum = 0
Injected packet rate average = 0.299806
	minimum = 0.293238 (at node 9)
	maximum = 0.30881 (at node 29)
Accepted packet rate average = 0.299528
	minimum = 0.292857 (at node 12)
	maximum = 0.308429 (at node 11)
Injected flit rate average = 0.299806
	minimum = 0.293238 (at node 9)
	maximum = 0.30881 (at node 29)
Accepted flit rate average= 0.299528
	minimum = 0.292857 (at node 12)
	maximum = 0.308429 (at node 11)
Injected packet length average = 1
Accepted packet length average = 1
Total in-flight flits = 270 (270 measured)
====== Peak Queue Occupancy Statistics (Absolute Max) ======
  Overall Max VC Occupancy = 1
  Overall Max Buffer Occupancy = 3
latency change    = 0.00606152
throughput change = 0.0823467
Class 0:
Packet latency average = 16.9654
	minimum = 10
	maximum = 33
	95th percentile = 22.5
	99th percentile = 25.5
Network latency average = 16.9654
	minimum = 10
	maximum = 33
	95th percentile = 22.5
	99th percentile = 25.5
Slowest packet = 166854
Flit latency average = 16.9653
	minimum = 10
	maximum = 33
	95th percentile = 22.5
	99th percentile = 25.5
Slowest flit = 166854
Fragmentation average = 0
	minimum = 0
	maximum = 0
Injected packet rate average = 0.325003
	minimum = 0.319583 (at node 9)
	maximum = 0.333792 (at node 29)
Accepted packet rate average = 0.324682
	minimum = 0.319292 (at node 12)
	maximum = 0.333417 (at node 11)
Injected flit rate average = 0.325003
	minimum = 0.319583 (at node 9)
	maximum = 0.333792 (at node 29)
Accepted flit rate average= 0.324682
	minimum = 0.319292 (at node 12)
	maximum = 0.333417 (at node 11)
Injected packet length average = 1
Accepted packet length average = 1
Total in-flight flits = 338 (338 measured)
====== Peak Queue Occupancy Statistics (Absolute Max) ======
  Overall Max VC Occupancy = 1
  Overall Max Buffer Occupancy = 4
latency change    = 0.00679313
throughput change = 0.0774726
Class 0:
Packet latency average = 17.0763
	minimum = 10
	maximum = 33
	95th percentile = 23.5
	99th percentile = 25.5
Network latency average = 17.0763
	minimum = 10
	maximum = 33
	95th percentile = 23.5
	99th percentile = 25.5
Slowest packet = 166854
Flit latency average = 17.0761
	minimum = 10
	maximum = 33
	95th percentile = 23.5
	99th percentile = 25.5
Slowest flit = 166854
Fragmentation average = 0
	minimum = 0
	maximum = 0
Injected packet rate average = 0.349794
	minimum = 0.344481 (at node 9)
	maximum = 0.358296 (at node 29)
Accepted packet rate average = 0.34951
	minimum = 0.344333 (at node 12)
	maximum = 0.357963 (at node 11)
Injected flit rate average = 0.349794
	minimum = 0.344481 (at node 9)
	maximum = 0.358296 (at node 29)
Accepted flit rate average= 0.34951
	minimum = 0.344333 (at node 12)
	maximum = 0.357963 (at node 11)
Injected packet length average = 1
Accepted packet length average = 1
Total in-flight flits = 336 (336 measured)
====== Peak Queue Occupancy Statistics (Absolute Max) ======
  Overall Max VC Occupancy = 1
  Overall Max Buffer Occupancy = 4
latency change    = 0.00649136
throughput change = 0.0710382
Class 0:
Packet latency average = 17.1929
	minimum = 10
	maximum = 36
	95th percentile = 23.5
	99th percentile = 25.5
Network latency average = 17.1929
	minimum = 10
	maximum = 36
	95th percentile = 23.5
	99th percentile = 25.5
Slowest packet = 407525
Flit latency average = 17.1927
	minimum = 10
	maximum = 36
	95th percentile = 23.5
	99th percentile = 25.5
Slowest flit = 407525
Fragmentation average = 0
	minimum = 0
	maximum = 0
Injected packet rate average = 0.374723
	minimum = 0.369667 (at node 9)
	maximum = 0.382333 (at node 29)
Accepted packet rate average = 0.374414
	minimum = 0.369333 (at node 12)
	maximum = 0.3818 (at node 11)
Injected flit rate average = 0.374723
	minimum = 0.369667 (at node 9)
	maximum = 0.382333 (at node 29)
Accepted flit rate average= 0.374414
	minimum = 0.369333 (at node 12)
	maximum = 0.3818 (at node 11)
Injected packet length average = 1
Accepted packet length average = 1
Total in-flight flits = 394 (394 measured)
====== Peak Queue Occupancy Statistics (Absolute Max) ======
  Overall Max VC Occupancy = 1
  Overall Max Buffer Occupancy = 4
latency change    = 0.00678224
throughput change = 0.0665136
Class 0:
Packet latency average = 17.3255
	minimum = 10
	maximum = 38
	95th percentile = 23.5
	99th percentile = 25.5
Network latency average = 17.3255
	minimum = 10
	maximum = 38
	95th percentile = 23.5
	99th percentile = 25.5
Slowest packet = 489471
Flit latency average = 17.3254
	minimum = 10
	maximum = 38
	95th percentile = 23.5
	99th percentile = 25.5
Slowest flit = 489471
Fragmentation average = 0
	minimum = 0
	maximum = 0
Injected packet rate average = 0.399683
	minimum = 0.394788 (at node 9)
	maximum = 0.407606 (at node 29)
Accepted packet rate average = 0.399385
	minimum = 0.394455 (at node 12)
	maximum = 0.407152 (at node 11)
Injected flit rate average = 0.399683
	minimum = 0.394788 (at node 9)
	maximum = 0.407606 (at node 29)
Accepted flit rate average= 0.399385
	minimum = 0.394455 (at node 12)
	maximum = 0.407152 (at node 11)
Injected packet length average = 1
Accepted packet length average = 1
Total in-flight flits = 414 (414 measured)
====== Peak Queue Occupancy Statistics (Absolute Max) ======
  Overall Max VC Occupancy = 1
  Overall Max Buffer Occupancy = 4
latency change    = 0.00765616
throughput change = 0.0625232
Class 0:
Packet latency average = 17.4763
	minimum = 10
	maximum = 40
	95th percentile = 23.5
	99th percentile = 26.5
Network latency average = 17.4763
	minimum = 10
	maximum = 40
	95th percentile = 23.5
	99th percentile = 26.5
Slowest packet = 501126
Flit latency average = 17.4762
	minimum = 10
	maximum = 40
	95th percentile = 23.5
	99th percentile = 26.5
Slowest flit = 501126
Fragmentation average = 0
	minimum = 0
	maximum = 0
Injected packet rate average = 0.42483
	minimum = 0.420111 (at node 9)
	maximum = 0.432278 (at node 29)
Accepted packet rate average = 0.424513
	minimum = 0.419778 (at node 12)
	maximum = 0.431833 (at node 11)
Injected flit rate average = 0.42483
	minimum = 0.420111 (at node 9)
	maximum = 0.432278 (at node 29)
Accepted flit rate average= 0.424513
	minimum = 0.419778 (at node 12)
	maximum = 0.431833 (at node 11)
Injected packet length average = 1
Accepted packet length average = 1
Total in-flight flits = 471 (471 measured)
====== Peak Queue Occupancy Statistics (Absolute Max) ======
  Overall Max VC Occupancy = 1
  Overall Max Buffer Occupancy = 4
latency change    = 0.00862627
throughput change = 0.0591935
Class 0:
Packet latency average = 17.636
	minimum = 10
	maximum = 48
	95th percentile = 23.5
	99th percentile = 26.5
Network latency average = 17.636
	minimum = 10
	maximum = 48
	95th percentile = 23.5
	99th percentile = 26.5
Slowest packet = 611076
Flit latency average = 17.6359
	minimum = 10
	maximum = 48
	95th percentile = 23.5
	99th percentile = 26.5
Slowest flit = 611076
Fragmentation average = 0
	minimum = 0
	maximum = 0
Injected packet rate average = 0.449887
	minimum = 0.445026 (at node 7)
	maximum = 0.457179 (at node 29)
Accepted packet rate average = 0.449571
	minimum = 0.444615 (at node 16)
	maximum = 0.456846 (at node 11)
Injected flit rate average = 0.449887
	minimum = 0.445026 (at node 7)
	maximum = 0.457179 (at node 29)
Accepted flit rate average= 0.449571
	minimum = 0.444615 (at node 16)
	maximum = 0.456846 (at node 11)
Injected packet length average = 1
Accepted packet length average = 1
Total in-flight flits = 503 (503 measured)
====== Peak Queue Occupancy Statistics (Absolute Max) ======
  Overall Max VC Occupancy = 1
  Overall Max Buffer Occupancy = 4
latency change    = 0.00905746
throughput change = 0.0557378
Class 0:
Packet latency average = 17.8013
	minimum = 10
	maximum = 48
	95th percentile = 24.5
	99th percentile = 27.5
Network latency average = 17.8013
	minimum = 10
	maximum = 48
	95th percentile = 24.5
	99th percentile = 27.5
Slowest packet = 611076
Flit latency average = 17.8012
	minimum = 10
	maximum = 48
	95th percentile = 24.5
	99th percentile = 27.5
Slowest flit = 611076
Fragmentation average = 0
	minimum = 0
	maximum = 0
Injected packet rate average = 0.474945
	minimum = 0.470119 (at node 9)
	maximum = 0.481929 (at node 29)
Accepted packet rate average = 0.474632
	minimum = 0.469881 (at node 12)
	maximum = 0.481571 (at node 11)
Injected flit rate average = 0.474945
	minimum = 0.470119 (at node 9)
	maximum = 0.481929 (at node 29)
Accepted flit rate average= 0.474632
	minimum = 0.469881 (at node 12)
	maximum = 0.481571 (at node 11)
Injected packet length average = 1
Accepted packet length average = 1
Total in-flight flits = 534 (534 measured)
====== Peak Queue Occupancy Statistics (Absolute Max) ======
  Overall Max VC Occupancy = 1
  Overall Max Buffer Occupancy = 4
latency change    = 0.00928318
throughput change = 0.0527997
Class 0:
Packet latency average = 17.9309
	minimum = 10
	maximum = 49
	95th percentile = 24.5
	99th percentile = 27.5
Network latency average = 17.9309
	minimum = 10
	maximum = 49
	95th percentile = 24.5
	99th percentile = 27.5
Slowest packet = 803459
Flit latency average = 17.9308
	minimum = 10
	maximum = 49
	95th percentile = 24.5
	99th percentile = 27.5
Slowest flit = 803459
Fragmentation average = 0
	minimum = 0
	maximum = 0
Injected packet rate average = 0.496604
	minimum = 0.491933 (at node 7)
	maximum = 0.504022 (at node 29)
Accepted packet rate average = 0.496307
	minimum = 0.491644 (at node 16)
	maximum = 0.503622 (at node 11)
Injected flit rate average = 0.496604
	minimum = 0.491933 (at node 7)
	maximum = 0.504022 (at node 29)
Accepted flit rate average= 0.496307
	minimum = 0.491644 (at node 16)
	maximum = 0.503622 (at node 11)
Injected packet length average = 1
Accepted packet length average = 1
Total in-flight flits = 542 (542 measured)
====== Peak Queue Occupancy Statistics (Absolute Max) ======
  Overall Max VC Occupancy = 1
  Overall Max Buffer Occupancy = 4
latency change    = 0.00722763
throughput change = 0.0436729
Class 0:
Packet latency average = 18.0389
	minimum = 10
	maximum = 51
	95th percentile = 24.5
	99th percentile = 27.5
Network latency average = 18.0389
	minimum = 10
	maximum = 51
	95th percentile = 24.5
	99th percentile = 27.5
Slowest packet = 838850
Flit latency average = 18.0388
	minimum = 10
	maximum = 51
	95th percentile = 24.5
	99th percentile = 27.5
Slowest flit = 838850
Fragmentation average = 0
	minimum = 0
	maximum = 0
Injected packet rate average = 0.515683
	minimum = 0.510813 (at node 9)
	maximum = 0.5235 (at node 29)
Accepted packet rate average = 0.515392
	minimum = 0.510521 (at node 12)
	maximum = 0.523188 (at node 11)
Injected flit rate average = 0.515683
	minimum = 0.510813 (at node 9)
	maximum = 0.5235 (at node 29)
Accepted flit rate average= 0.515392
	minimum = 0.510521 (at node 12)
	maximum = 0.523188 (at node 11)
Injected packet length average = 1
Accepted packet length average = 1
Total in-flight flits = 563 (563 measured)
====== Peak Queue Occupancy Statistics (Absolute Max) ======
  Overall Max VC Occupancy = 1
  Overall Max Buffer Occupancy = 4
latency change    = 0.00598895
throughput change = 0.0370301
Class 0:
Packet latency average = 18.1235
	minimum = 10
	maximum = 51
	95th percentile = 24.5
	99th percentile = 27.5
Network latency average = 18.1235
	minimum = 10
	maximum = 51
	95th percentile = 24.5
	99th percentile = 27.5
Slowest packet = 838850
Flit latency average = 18.1234
	minimum = 10
	maximum = 51
	95th percentile = 24.5
	99th percentile = 27.5
Slowest flit = 838850
Fragmentation average = 0
	minimum = 0
	maximum = 0
Injected packet rate average = 0.53238
	minimum = 0.527098 (at node 9)
	maximum = 0.53998 (at node 29)
Accepted packet rate average = 0.532114
	minimum = 0.526843 (at node 12)
	maximum = 0.539706 (at node 11)
Injected flit rate average = 0.53238
	minimum = 0.527098 (at node 9)
	maximum = 0.53998 (at node 29)
Accepted flit rate average= 0.532114
	minimum = 0.526843 (at node 12)
	maximum = 0.539706 (at node 11)
Injected packet length average = 1
Accepted packet length average = 1
Total in-flight flits = 549 (549 measured)
====== Peak Queue Occupancy Statistics (Absolute Max) ======
  Overall Max VC Occupancy = 1
  Overall Max Buffer Occupancy = 4
latency change    = 0.00466979
throughput change = 0.0314257
Draining all recorded packets ...
Draining remaining packets ...
Time taken is 57053 cycles
====== Overall Traffic Statistics ======
====== Traffic class 0 ======
Packet latency average = 18.1245 (1 samples)
	minimum = 10 (1 samples)
	maximum = 51 (1 samples)
Network latency average = 18.1245 (1 samples)
	minimum = 10 (1 samples)
	maximum = 51 (1 samples)
Flit latency average = 18.1248 (1 samples)
	minimum = 10 (1 samples)
	maximum = 51 (1 samples)
Fragmentation average = 0 (1 samples)
	minimum = 0 (1 samples)
	maximum = 0 (1 samples)
Injected packet rate average = 0.53238 (1 samples)
	minimum = 0.527098 (1 samples)
	maximum = 0.53998 (1 samples)
Accepted packet rate average = 0.532114 (1 samples)
	minimum = 0.526843 (1 samples)
	maximum = 0.539706 (1 samples)
Injected flit rate average = 0.53238 (1 samples)
	minimum = 0.527098 (1 samples)
	maximum = 0.53998 (1 samples)
Accepted flit rate average = 0.532114 (1 samples)
	minimum = 0.526843 (1 samples)
	maximum = 0.539706 (1 samples)
Injected packet size average = 1 (1 samples)
Accepted packet size average = 1 (1 samples)
Hops average = 3.44486 (1 samples)
Total run time 26.1847
====== Observed Edge Statistics ======
edge_capacity = 1
Edge (0 -> 1) dst_input_port=2 max_buffer_ratio=1 buffer_over_90_fraction=0.040047 buffer_full_fraction=0.040047 max_full_streak=6 edge_capacity=0.222222 max_edge_load=0.182 max_edge_utilization=0.819 total_traversals=6136 buffer_exploded=1 load_exceeded_capacity=0
Edge (0 -> 2) dst_input_port=2 max_buffer_ratio=1 buffer_over_90_fraction=0.0578424 buffer_full_fraction=0.0578424 max_full_streak=5 edge_capacity=0.222222 max_edge_load=0.183 max_edge_utilization=0.8235 total_traversals=6152 buffer_exploded=1 load_exceeded_capacity=0
Edge (0 -> 3) dst_input_port=2 max_buffer_ratio=1 buffer_over_90_fraction=0.0164492 buffer_full_fraction=0.0164492 max_full_streak=5 edge_capacity=0.222222 max_edge_load=0.183 max_edge_utilization=0.8235 total_traversals=6140 buffer_exploded=1 load_exceeded_capacity=0
Edge (0 -> 4) dst_input_port=2 max_buffer_ratio=1 buffer_over_90_fraction=0.0354043 buffer_full_fraction=0.0354043 max_full_streak=5 edge_capacity=0.222222 max_edge_load=0.183 max_edge_utilization=0.8235 total_traversals=6139 buffer_exploded=1 load_exceeded_capacity=0
Edge (0 -> 5) dst_input_port=2 max_buffer_ratio=1 buffer_over_90_fraction=0.0755984 buffer_full_fraction=0.0755984 max_full_streak=5 edge_capacity=0.222222 max_edge_load=0.181 max_edge_utilization=0.8145 total_traversals=6135 buffer_exploded=1 load_exceeded_capacity=0
Edge (0 -> 6) dst_input_port=2 max_buffer_ratio=1 buffer_over_90_fraction=0.0217693 buffer_full_fraction=0.0217693 max_full_streak=5 edge_capacity=0.222222 max_edge_load=0.181 max_edge_utilization=0.8145 total_traversals=6124 buffer_exploded=1 load_exceeded_capacity=0
Edge (0 -> 7) dst_input_port=2 max_buffer_ratio=1 buffer_over_90_fraction=0.0627324 buffer_full_fraction=0.0627324 max_full_streak=7 edge_capacity=0.222222 max_edge_load=0.181 max_edge_utilization=0.8145 total_traversals=6135 buffer_exploded=1 load_exceeded_capacity=0
Edge (0 -> 8) dst_input_port=2 max_buffer_ratio=1 buffer_over_90_fraction=0.0353674 buffer_full_fraction=0.0353674 max_full_streak=6 edge_capacity=0.222222 max_edge_load=0.181 max_edge_utilization=0.8145 total_traversals=6144 buffer_exploded=1 load_exceeded_capacity=0
Edge (0 -> 9) dst_input_port=0 max_buffer_ratio=1 buffer_over_90_fraction=0.000876685 buffer_full_fraction=0.000876685 max_full_streak=1 edge_capacity=1 max_edge_load=0.269 max_edge_utilization=0.269 total_traversals=9191 buffer_exploded=1 load_exceeded_capacity=0
Edge (0 -> 18) dst_input_port=0 max_buffer_ratio=1 buffer_over_90_fraction=0.000578612 buffer_full_fraction=0.000578612 max_full_streak=1 edge_capacity=1 max_edge_load=0.271 max_edge_utilization=0.271 total_traversals=9172 buffer_exploded=1 load_exceeded_capacity=0
Edge (1 -> 0) dst_input_port=2 max_buffer_ratio=1 buffer_over_90_fraction=0.0486351 buffer_full_fraction=0.0486351 max_full_streak=6 edge_capacity=0.222222 max_edge_load=0.181 max_edge_utilization=0.8145 total_traversals=6115 buffer_exploded=1 load_exceeded_capacity=0
Edge (1 -> 2) dst_input_port=3 max_buffer_ratio=1 buffer_over_90_fraction=0.0605896 buffer_full_fraction=0.0605896 max_full_streak=6 edge_capacity=0.222222 max_edge_load=0.182 max_edge_utilization=0.819 total_traversals=6143 buffer_exploded=1 load_exceeded_capacity=0
Edge (1 -> 3) dst_input_port=3 max_buffer_ratio=1 buffer_over_90_fraction=0.0325149 buffer_full_fraction=0.0325149 max_full_streak=6 edge_capacity=0.222222 max_edge_load=0.181 max_edge_utilization=0.8145 total_traversals=6132 buffer_exploded=1 load_exceeded_capacity=0
Edge (1 -> 4) dst_input_port=3 max_buffer_ratio=1 buffer_over_90_fraction=0.036635 buffer_full_fraction=0.036635 max_full_streak=5 edge_capacity=0.222222 max_edge_load=0.181 max_edge_utilization=0.8145 total_traversals=6131 buffer_exploded=1 load_exceeded_capacity=0
Edge (1 -> 5) dst_input_port=3 max_buffer_ratio=1 buffer_over_90_fraction=0.0387765 buffer_full_fraction=0.0387765 max_full_streak=5 edge_capacity=0.222222 max_edge_load=0.181 max_edge_utilization=0.8145 total_traversals=6128 buffer_exploded=1 load_exceeded_capacity=0
Edge (1 -> 6) dst_input_port=3 max_buffer_ratio=1 buffer_over_90_fraction=0.0451555 buffer_full_fraction=0.0451555 max_full_streak=6 edge_capacity=0.222222 max_edge_load=0.18 max_edge_utilization=0.81 total_traversals=6117 buffer_exploded=1 load_exceeded_capacity=0
Edge (1 -> 7) dst_input_port=3 max_buffer_ratio=1 buffer_over_90_fraction=0.0229286 buffer_full_fraction=0.0229286 max_full_streak=5 edge_capacity=0.222222 max_edge_load=0.18 max_edge_utilization=0.81 total_traversals=6128 buffer_exploded=1 load_exceeded_capacity=0
Edge (1 -> 8) dst_input_port=3 max_buffer_ratio=1 buffer_over_90_fraction=0.0493494 buffer_full_fraction=0.0493494 max_full_streak=6 edge_capacity=0.222222 max_edge_load=0.18 max_edge_utilization=0.81 total_traversals=6136 buffer_exploded=1 load_exceeded_capacity=0
Edge (1 -> 10) dst_input_port=0 max_buffer_ratio=1 buffer_over_90_fraction=0.000368227 buffer_full_fraction=0.000368227 max_full_streak=1 edge_capacity=1 max_edge_load=0.27 max_edge_utilization=0.27 total_traversals=9190 buffer_exploded=1 load_exceeded_capacity=0
Edge (1 -> 19) dst_input_port=0 max_buffer_ratio=1 buffer_over_90_fraction=0.00166579 buffer_full_fraction=0.00166579 max_full_streak=1 edge_capacity=1 max_edge_load=0.271 max_edge_utilization=0.271 total_traversals=9171 buffer_exploded=1 load_exceeded_capacity=0
Edge (2 -> 0) dst_input_port=3 max_buffer_ratio=1 buffer_over_90_fraction=0.0432265 buffer_full_fraction=0.0432265 max_full_streak=5 edge_capacity=0.222222 max_edge_load=0.181 max_edge_utilization=0.8145 total_traversals=6116 buffer_exploded=1 load_exceeded_capacity=0
Edge (2 -> 1) dst_input_port=3 max_buffer_ratio=1 buffer_over_90_fraction=0.0246307 buffer_full_fraction=0.0246307 max_full_streak=6 edge_capacity=0.222222 max_edge_load=0.18 max_edge_utilization=0.81 total_traversals=6128 buffer_exploded=1 load_exceeded_capacity=0
Edge (2 -> 3) dst_input_port=4 max_buffer_ratio=1 buffer_over_90_fraction=0.0441971 buffer_full_fraction=0.0441971 max_full_streak=6 edge_capacity=0.222222 max_edge_load=0.183 max_edge_utilization=0.8235 total_traversals=6132 buffer_exploded=1 load_exceeded_capacity=0
Edge (2 -> 4) dst_input_port=4 max_buffer_ratio=1 buffer_over_90_fraction=0.0529122 buffer_full_fraction=0.0529122 max_full_streak=5 edge_capacity=0.222222 max_edge_load=0.181 max_edge_utilization=0.8145 total_traversals=6131 buffer_exploded=1 load_exceeded_capacity=0
Edge (2 -> 5) dst_input_port=4 max_buffer_ratio=1 buffer_over_90_fraction=0.0631481 buffer_full_fraction=0.0631481 max_full_streak=6 edge_capacity=0.222222 max_edge_load=0.18 max_edge_utilization=0.81 total_traversals=6128 buffer_exploded=1 load_exceeded_capacity=0
Edge (2 -> 6) dst_input_port=4 max_buffer_ratio=1 buffer_over_90_fraction=0.0464651 buffer_full_fraction=0.0464651 max_full_streak=6 edge_capacity=0.222222 max_edge_load=0.18 max_edge_utilization=0.81 total_traversals=6117 buffer_exploded=1 load_exceeded_capacity=0
Edge (2 -> 7) dst_input_port=4 max_buffer_ratio=1 buffer_over_90_fraction=0.0198673 buffer_full_fraction=0.0198673 max_full_streak=8 edge_capacity=0.222222 max_edge_load=0.18 max_edge_utilization=0.81 total_traversals=6128 buffer_exploded=1 load_exceeded_capacity=0
Edge (2 -> 8) dst_input_port=4 max_buffer_ratio=1 buffer_over_90_fraction=0.0564472 buffer_full_fraction=0.0564472 max_full_streak=6 edge_capacity=0.222222 max_edge_load=0.18 max_edge_utilization=0.81 total_traversals=6137 buffer_exploded=1 load_exceeded_capacity=0
Edge (2 -> 11) dst_input_port=0 max_buffer_ratio=1 buffer_over_90_fraction=0.00133289 buffer_full_fraction=0.00133289 max_full_streak=1 edge_capacity=1 max_edge_load=0.269 max_edge_utilization=0.269 total_traversals=9190 buffer_exploded=1 load_exceeded_capacity=0
Edge (2 -> 20) dst_input_port=0 max_buffer_ratio=1 buffer_over_90_fraction=0.000859996 buffer_full_fraction=0.000859996 max_full_streak=1 edge_capacity=1 max_edge_load=0.271 max_edge_utilization=0.271 total_traversals=9171 buffer_exploded=1 load_exceeded_capacity=0
Edge (3 -> 0) dst_input_port=4 max_buffer_ratio=1 buffer_over_90_fraction=0.0413429 buffer_full_fraction=0.0413429 max_full_streak=6 edge_capacity=0.222222 max_edge_load=0.182 max_edge_utilization=0.819 total_traversals=6107 buffer_exploded=1 load_exceeded_capacity=0
Edge (3 -> 1) dst_input_port=4 max_buffer_ratio=1 buffer_over_90_fraction=0.024611 buffer_full_fraction=0.024611 max_full_streak=5 edge_capacity=0.222222 max_edge_load=0.182 max_edge_utilization=0.819 total_traversals=6121 buffer_exploded=1 load_exceeded_capacity=0
Edge (3 -> 2) dst_input_port=4 max_buffer_ratio=1 buffer_over_90_fraction=0.0204411 buffer_full_fraction=0.0204411 max_full_streak=7 edge_capacity=0.222222 max_edge_load=0.183 max_edge_utilization=0.8235 total_traversals=6136 buffer_exploded=1 load_exceeded_capacity=0
Edge (3 -> 4) dst_input_port=5 max_buffer_ratio=1 buffer_over_90_fraction=0.040546 buffer_full_fraction=0.040546 max_full_streak=6 edge_capacity=0.222222 max_edge_load=0.18 max_edge_utilization=0.81 total_traversals=6124 buffer_exploded=1 load_exceeded_capacity=0
Edge (3 -> 5) dst_input_port=5 max_buffer_ratio=1 buffer_over_90_fraction=0.0269516 buffer_full_fraction=0.0269516 max_full_streak=7 edge_capacity=0.222222 max_edge_load=0.181 max_edge_utilization=0.8145 total_traversals=6121 buffer_exploded=1 load_exceeded_capacity=0
Edge (3 -> 6) dst_input_port=5 max_buffer_ratio=1 buffer_over_90_fraction=0.0349416 buffer_full_fraction=0.0349416 max_full_streak=6 edge_capacity=0.222222 max_edge_load=0.183 max_edge_utilization=0.8235 total_traversals=6110 buffer_exploded=1 load_exceeded_capacity=0
Edge (3 -> 7) dst_input_port=5 max_buffer_ratio=1 buffer_over_90_fraction=0.0371014 buffer_full_fraction=0.0371014 max_full_streak=5 edge_capacity=0.222222 max_edge_load=0.182 max_edge_utilization=0.819 total_traversals=6120 buffer_exploded=1 load_exceeded_capacity=0
Edge (3 -> 8) dst_input_port=5 max_buffer_ratio=1 buffer_over_90_fraction=0.0442768 buffer_full_fraction=0.0442768 max_full_streak=5 edge_capacity=0.222222 max_edge_load=0.182 max_edge_utilization=0.819 total_traversals=6129 buffer_exploded=1 load_exceeded_capacity=0
Edge (3 -> 12) dst_input_port=0 max_buffer_ratio=1 buffer_over_90_fraction=0.000596324 buffer_full_fraction=0.000596324 max_full_streak=1 edge_capacity=1 max_edge_load=0.269 max_edge_utilization=0.269 total_traversals=9190 buffer_exploded=1 load_exceeded_capacity=0
Edge (3 -> 21) dst_input_port=0 max_buffer_ratio=1 buffer_over_90_fraction=0.000438843 buffer_full_fraction=0.000438843 max_full_streak=1 edge_capacity=1 max_edge_load=0.27 max_edge_utilization=0.27 total_traversals=9170 buffer_exploded=1 load_exceeded_capacity=0
Edge (4 -> 0) dst_input_port=5 max_buffer_ratio=1 buffer_over_90_fraction=0.0324959 buffer_full_fraction=0.0324959 max_full_streak=4 edge_capacity=0.222222 max_edge_load=0.181 max_edge_utilization=0.8145 total_traversals=6134 buffer_exploded=1 load_exceeded_capacity=0
Edge (4 -> 1) dst_input_port=5 max_buffer_ratio=1 buffer_over_90_fraction=0.0608464 buffer_full_fraction=0.0608464 max_full_streak=5 edge_capacity=0.222222 max_edge_load=0.181 max_edge_utilization=0.8145 total_traversals=6147 buffer_exploded=1 load_exceeded_capacity=0
Edge (4 -> 2) dst_input_port=5 max_buffer_ratio=1 buffer_over_90_fraction=0.0188908 buffer_full_fraction=0.0188908 max_full_streak=5 edge_capacity=0.222222 max_edge_load=0.183 max_edge_utilization=0.8235 total_traversals=6162 buffer_exploded=1 load_exceeded_capacity=0
Edge (4 -> 3) dst_input_port=5 max_buffer_ratio=1 buffer_over_90_fraction=0.0197281 buffer_full_fraction=0.0197281 max_full_streak=6 edge_capacity=0.222222 max_edge_load=0.182 max_edge_utilization=0.819 total_traversals=6151 buffer_exploded=1 load_exceeded_capacity=0
Edge (4 -> 5) dst_input_port=6 max_buffer_ratio=1 buffer_over_90_fraction=0.0424109 buffer_full_fraction=0.0424109 max_full_streak=5 edge_capacity=0.222222 max_edge_load=0.184 max_edge_utilization=0.828 total_traversals=6147 buffer_exploded=1 load_exceeded_capacity=0
Edge (4 -> 6) dst_input_port=6 max_buffer_ratio=1 buffer_over_90_fraction=0.0466312 buffer_full_fraction=0.0466312 max_full_streak=5 edge_capacity=0.222222 max_edge_load=0.181 max_edge_utilization=0.8145 total_traversals=6136 buffer_exploded=1 load_exceeded_capacity=0
Edge (4 -> 7) dst_input_port=6 max_buffer_ratio=1 buffer_over_90_fraction=0.0653339 buffer_full_fraction=0.0653339 max_full_streak=6 edge_capacity=0.222222 max_edge_load=0.183 max_edge_utilization=0.8235 total_traversals=6147 buffer_exploded=1 load_exceeded_capacity=0
Edge (4 -> 8) dst_input_port=6 max_buffer_ratio=1 buffer_over_90_fraction=0.0609065 buffer_full_fraction=0.0609065 max_full_streak=6 edge_capacity=0.222222 max_edge_load=0.182 max_edge_utilization=0.819 total_traversals=6156 buffer_exploded=1 load_exceeded_capacity=0
Edge (4 -> 13) dst_input_port=0 max_buffer_ratio=1 buffer_over_90_fraction=0.00175466 buffer_full_fraction=0.00175466 max_full_streak=1 edge_capacity=1 max_edge_load=0.269 max_edge_utilization=0.269 total_traversals=9189 buffer_exploded=1 load_exceeded_capacity=0
Edge (4 -> 22) dst_input_port=0 max_buffer_ratio=1 buffer_over_90_fraction=0.000456621 buffer_full_fraction=0.000456621 max_full_streak=1 edge_capacity=1 max_edge_load=0.27 max_edge_utilization=0.27 total_traversals=9170 buffer_exploded=1 load_exceeded_capacity=0
Edge (5 -> 0) dst_input_port=6 max_buffer_ratio=1 buffer_over_90_fraction=0.0312664 buffer_full_fraction=0.0312664 max_full_streak=5 edge_capacity=0.222222 max_edge_load=0.182 max_edge_utilization=0.819 total_traversals=6106 buffer_exploded=1 load_exceeded_capacity=0
Edge (5 -> 1) dst_input_port=6 max_buffer_ratio=1 buffer_over_90_fraction=0.025189 buffer_full_fraction=0.025189 max_full_streak=5 edge_capacity=0.222222 max_edge_load=0.181 max_edge_utilization=0.8145 total_traversals=6119 buffer_exploded=1 load_exceeded_capacity=0
Edge (5 -> 2) dst_input_port=6 max_buffer_ratio=1 buffer_over_90_fraction=0.0496481 buffer_full_fraction=0.0496481 max_full_streak=5 edge_capacity=0.222222 max_edge_load=0.181 max_edge_utilization=0.8145 total_traversals=6135 buffer_exploded=1 load_exceeded_capacity=0
Edge (5 -> 3) dst_input_port=6 max_buffer_ratio=1 buffer_over_90_fraction=0.0539739 buffer_full_fraction=0.0539739 max_full_streak=5 edge_capacity=0.222222 max_edge_load=0.18 max_edge_utilization=0.81 total_traversals=6123 buffer_exploded=1 load_exceeded_capacity=0
Edge (5 -> 4) dst_input_port=6 max_buffer_ratio=1 buffer_over_90_fraction=0.0415255 buffer_full_fraction=0.0415255 max_full_streak=6 edge_capacity=0.222222 max_edge_load=0.18 max_edge_utilization=0.81 total_traversals=6122 buffer_exploded=1 load_exceeded_capacity=0
Edge (5 -> 6) dst_input_port=7 max_buffer_ratio=1 buffer_over_90_fraction=0.0475045 buffer_full_fraction=0.0475045 max_full_streak=5 edge_capacity=0.222222 max_edge_load=0.182 max_edge_utilization=0.819 total_traversals=6108 buffer_exploded=1 load_exceeded_capacity=0
Edge (5 -> 7) dst_input_port=7 max_buffer_ratio=1 buffer_over_90_fraction=0.0463449 buffer_full_fraction=0.0463449 max_full_streak=5 edge_capacity=0.222222 max_edge_load=0.182 max_edge_utilization=0.819 total_traversals=6119 buffer_exploded=1 load_exceeded_capacity=0
Edge (5 -> 8) dst_input_port=7 max_buffer_ratio=1 buffer_over_90_fraction=0.0480143 buffer_full_fraction=0.0480143 max_full_streak=5 edge_capacity=0.222222 max_edge_load=0.18 max_edge_utilization=0.81 total_traversals=6127 buffer_exploded=1 load_exceeded_capacity=0
Edge (5 -> 14) dst_input_port=0 max_buffer_ratio=1 buffer_over_90_fraction=0.000263565 buffer_full_fraction=0.000263565 max_full_streak=1 edge_capacity=1 max_edge_load=0.269 max_edge_utilization=0.269 total_traversals=9189 buffer_exploded=1 load_exceeded_capacity=0
Edge (5 -> 23) dst_input_port=0 max_buffer_ratio=1 buffer_over_90_fraction=0.00198451 buffer_full_fraction=0.00198451 max_full_streak=2 edge_capacity=1 max_edge_load=0.27 max_edge_utilization=0.27 total_traversals=9169 buffer_exploded=1 load_exceeded_capacity=0
Edge (6 -> 0) dst_input_port=7 max_buffer_ratio=1 buffer_over_90_fraction=0.028348 buffer_full_fraction=0.028348 max_full_streak=5 edge_capacity=0.222222 max_edge_load=0.185 max_edge_utilization=0.8325 total_traversals=6106 buffer_exploded=1 load_exceeded_capacity=0
Edge (6 -> 1) dst_input_port=7 max_buffer_ratio=1 buffer_over_90_fraction=0.0651266 buffer_full_fraction=0.0651266 max_full_streak=6 edge_capacity=0.222222 max_edge_load=0.181 max_edge_utilization=0.8145 total_traversals=6118 buffer_exploded=1 load_exceeded_capacity=0
Edge (6 -> 2) dst_input_port=7 max_buffer_ratio=1 buffer_over_90_fraction=0.0392911 buffer_full_fraction=0.0392911 max_full_streak=8 edge_capacity=0.222222 max_edge_load=0.183 max_edge_utilization=0.8235 total_traversals=6134 buffer_exploded=1 load_exceeded_capacity=0
Edge (6 -> 3) dst_input_port=7 max_buffer_ratio=1 buffer_over_90_fraction=0.042419 buffer_full_fraction=0.042419 max_full_streak=6 edge_capacity=0.222222 max_edge_load=0.182 max_edge_utilization=0.819 total_traversals=6121 buffer_exploded=1 load_exceeded_capacity=0
Edge (6 -> 4) dst_input_port=7 max_buffer_ratio=1 buffer_over_90_fraction=0.0106396 buffer_full_fraction=0.0106396 max_full_streak=6 edge_capacity=0.222222 max_edge_load=0.182 max_edge_utilization=0.819 total_traversals=6120 buffer_exploded=1 load_exceeded_capacity=0
Edge (6 -> 5) dst_input_port=7 max_buffer_ratio=1 buffer_over_90_fraction=0.0373107 buffer_full_fraction=0.0373107 max_full_streak=5 edge_capacity=0.222222 max_edge_load=0.181 max_edge_utilization=0.8145 total_traversals=6117 buffer_exploded=1 load_exceeded_capacity=0
Edge (6 -> 7) dst_input_port=8 max_buffer_ratio=1 buffer_over_90_fraction=0.0460029 buffer_full_fraction=0.0460029 max_full_streak=7 edge_capacity=0.222222 max_edge_load=0.182 max_edge_utilization=0.819 total_traversals=6118 buffer_exploded=1 load_exceeded_capacity=0
Edge (6 -> 8) dst_input_port=8 max_buffer_ratio=1 buffer_over_90_fraction=0.0435065 buffer_full_fraction=0.0435065 max_full_streak=8 edge_capacity=0.222222 max_edge_load=0.181 max_edge_utilization=0.8145 total_traversals=6126 buffer_exploded=1 load_exceeded_capacity=0
Edge (6 -> 15) dst_input_port=0 max_buffer_ratio=1 buffer_over_90_fraction=0.00221414 buffer_full_fraction=0.00221414 max_full_streak=1 edge_capacity=1 max_edge_load=0.27 max_edge_utilization=0.27 total_traversals=9189 buffer_exploded=1 load_exceeded_capacity=0
Edge (6 -> 24) dst_input_port=0 max_buffer_ratio=1 buffer_over_90_fraction=0.00193216 buffer_full_fraction=0.00193216 max_full_streak=1 edge_capacity=1 max_edge_load=0.27 max_edge_utilization=0.27 total_traversals=9169 buffer_exploded=1 load_exceeded_capacity=0
Edge (7 -> 0) dst_input_port=8 max_buffer_ratio=1 buffer_over_90_fraction=0.0447266 buffer_full_fraction=0.0447266 max_full_streak=5 edge_capacity=0.222222 max_edge_load=0.183 max_edge_utilization=0.8235 total_traversals=6099 buffer_exploded=1 load_exceeded_capacity=0
Edge (7 -> 1) dst_input_port=8 max_buffer_ratio=1 buffer_over_90_fraction=0.0371645 buffer_full_fraction=0.0371645 max_full_streak=5 edge_capacity=0.222222 max_edge_load=0.179 max_edge_utilization=0.8055 total_traversals=6112 buffer_exploded=1 load_exceeded_capacity=0
Edge (7 -> 2) dst_input_port=8 max_buffer_ratio=1 buffer_over_90_fraction=0.0614768 buffer_full_fraction=0.0614768 max_full_streak=6 edge_capacity=0.222222 max_edge_load=0.181 max_edge_utilization=0.8145 total_traversals=6128 buffer_exploded=1 load_exceeded_capacity=0
Edge (7 -> 3) dst_input_port=8 max_buffer_ratio=1 buffer_over_90_fraction=0.0684936 buffer_full_fraction=0.0684936 max_full_streak=5 edge_capacity=0.222222 max_edge_load=0.181 max_edge_utilization=0.8145 total_traversals=6116 buffer_exploded=1 load_exceeded_capacity=0
Edge (7 -> 4) dst_input_port=8 max_buffer_ratio=1 buffer_over_90_fraction=0.0226546 buffer_full_fraction=0.0226546 max_full_streak=6 edge_capacity=0.222222 max_edge_load=0.182 max_edge_utilization=0.819 total_traversals=6114 buffer_exploded=1 load_exceeded_capacity=0
Edge (7 -> 5) dst_input_port=8 max_buffer_ratio=1 buffer_over_90_fraction=0.0354296 buffer_full_fraction=0.0354296 max_full_streak=7 edge_capacity=0.222222 max_edge_load=0.18 max_edge_utilization=0.81 total_traversals=6111 buffer_exploded=1 load_exceeded_capacity=0
Edge (7 -> 6) dst_input_port=8 max_buffer_ratio=1 buffer_over_90_fraction=0.0464356 buffer_full_fraction=0.0464356 max_full_streak=5 edge_capacity=0.222222 max_edge_load=0.18 max_edge_utilization=0.81 total_traversals=6100 buffer_exploded=1 load_exceeded_capacity=0
Edge (7 -> 8) dst_input_port=9 max_buffer_ratio=1 buffer_over_90_fraction=0.0267472 buffer_full_fraction=0.0267472 max_full_streak=7 edge_capacity=0.222222 max_edge_load=0.18 max_edge_utilization=0.81 total_traversals=6120 buffer_exploded=1 load_exceeded_capacity=0
Edge (7 -> 16) dst_input_port=0 max_buffer_ratio=1 buffer_over_90_fraction=0.0013708 buffer_full_fraction=0.0013708 max_full_streak=2 edge_capacity=1 max_edge_load=0.27 max_edge_utilization=0.27 total_traversals=9189 buffer_exploded=1 load_exceeded_capacity=0
Edge (7 -> 25) dst_input_port=0 max_buffer_ratio=1 buffer_over_90_fraction=0.00145826 buffer_full_fraction=0.00145826 max_full_streak=1 edge_capacity=1 max_edge_load=0.27 max_edge_utilization=0.27 total_traversals=9169 buffer_exploded=1 load_exceeded_capacity=0
Edge (8 -> 0) dst_input_port=9 max_buffer_ratio=1 buffer_over_90_fraction=0.0373442 buffer_full_fraction=0.0373442 max_full_streak=6 edge_capacity=0.222222 max_edge_load=0.183 max_edge_utilization=0.8235 total_traversals=6107 buffer_exploded=1 load_exceeded_capacity=0
Edge (8 -> 1) dst_input_port=9 max_buffer_ratio=1 buffer_over_90_fraction=0.0643125 buffer_full_fraction=0.0643125 max_full_streak=5 edge_capacity=0.222222 max_edge_load=0.18 max_edge_utilization=0.81 total_traversals=6120 buffer_exploded=1 load_exceeded_capacity=0
Edge (8 -> 2) dst_input_port=9 max_buffer_ratio=1 buffer_over_90_fraction=0.0569899 buffer_full_fraction=0.0569899 max_full_streak=6 edge_capacity=0.222222 max_edge_load=0.183 max_edge_utilization=0.8235 total_traversals=6136 buffer_exploded=1 load_exceeded_capacity=0
Edge (8 -> 3) dst_input_port=9 max_buffer_ratio=1 buffer_over_90_fraction=0.046672 buffer_full_fraction=0.046672 max_full_streak=6 edge_capacity=0.222222 max_edge_load=0.181 max_edge_utilization=0.8145 total_traversals=6123 buffer_exploded=1 load_exceeded_capacity=0
Edge (8 -> 4) dst_input_port=9 max_buffer_ratio=1 buffer_over_90_fraction=0.0541936 buffer_full_fraction=0.0541936 max_full_streak=5 edge_capacity=0.222222 max_edge_load=0.181 max_edge_utilization=0.8145 total_traversals=6122 buffer_exploded=1 load_exceeded_capacity=0
Edge (8 -> 5) dst_input_port=9 max_buffer_ratio=1 buffer_over_90_fraction=0.0247633 buffer_full_fraction=0.0247633 max_full_streak=5 edge_capacity=0.222222 max_edge_load=0.181 max_edge_utilization=0.8145 total_traversals=6119 buffer_exploded=1 load_exceeded_capacity=0
Edge (8 -> 6) dst_input_port=9 max_buffer_ratio=1 buffer_over_90_fraction=0.0315974 buffer_full_fraction=0.0315974 max_full_streak=5 edge_capacity=0.222222 max_edge_load=0.181 max_edge_utilization=0.8145 total_traversals=6108 buffer_exploded=1 load_exceeded_capacity=0
Edge (8 -> 7) dst_input_port=9 max_buffer_ratio=1 buffer_over_90_fraction=0.0527629 buffer_full_fraction=0.0527629 max_full_streak=7 edge_capacity=0.222222 max_edge_load=0.181 max_edge_utilization=0.8145 total_traversals=6119 buffer_exploded=1 load_exceeded_capacity=0
Edge (8 -> 17) dst_input_port=0 max_buffer_ratio=1 buffer_over_90_fraction=0.000439506 buffer_full_fraction=0.000439506 max_full_streak=1 edge_capacity=1 max_edge_load=0.269 max_edge_utilization=0.269 total_traversals=9188 buffer_exploded=1 load_exceeded_capacity=0
Edge (8 -> 26) dst_input_port=0 max_buffer_ratio=1 buffer_over_90_fraction=0.00100193 buffer_full_fraction=0.00100193 max_full_streak=1 edge_capacity=1 max_edge_load=0.27 max_edge_utilization=0.27 total_traversals=9169 buffer_exploded=1 load_exceeded_capacity=0
Edge (9 -> 0) dst_input_port=0 max_buffer_ratio=1 buffer_over_90_fraction=0.00220921 buffer_full_fraction=0.00220921 max_full_streak=1 edge_capacity=1 max_edge_load=0.273 max_edge_utilization=0.273 total_traversals=9223 buffer_exploded=1 load_exceeded_capacity=0
Edge (9 -> 10) dst_input_port=2 max_buffer_ratio=1 buffer_over_90_fraction=0.0504831 buffer_full_fraction=0.0504831 max_full_streak=6 edge_capacity=0.222222 max_edge_load=0.179 max_edge_utilization=0.8055 total_traversals=6101 buffer_exploded=1 load_exceeded_capacity=0
Edge (9 -> 11) dst_input_port=2 max_buffer_ratio=1 buffer_over_90_fraction=0.0662456 buffer_full_fraction=0.0662456 max_full_streak=6 edge_capacity=0.222222 max_edge_load=0.18 max_edge_utilization=0.81 total_traversals=6149 buffer_exploded=1 load_exceeded_capacity=0
Edge (9 -> 12) dst_input_port=2 max_buffer_ratio=1 buffer_over_90_fraction=0.0157074 buffer_full_fraction=0.0157074 max_full_streak=5 edge_capacity=0.222222 max_edge_load=0.181 max_edge_utilization=0.8145 total_traversals=6078 buffer_exploded=1 load_exceeded_capacity=0
Edge (9 -> 13) dst_input_port=2 max_buffer_ratio=1 buffer_over_90_fraction=0.0447392 buffer_full_fraction=0.0447392 max_full_streak=5 edge_capacity=0.222222 max_edge_load=0.18 max_edge_utilization=0.81 total_traversals=6121 buffer_exploded=1 load_exceeded_capacity=0
Edge (9 -> 14) dst_input_port=2 max_buffer_ratio=1 buffer_over_90_fraction=0.0539976 buffer_full_fraction=0.0539976 max_full_streak=6 edge_capacity=0.222222 max_edge_load=0.181 max_edge_utilization=0.8145 total_traversals=6116 buffer_exploded=1 load_exceeded_capacity=0
Edge (9 -> 15) dst_input_port=2 max_buffer_ratio=1 buffer_over_90_fraction=0.0276053 buffer_full_fraction=0.0276053 max_full_streak=6 edge_capacity=0.222222 max_edge_load=0.179 max_edge_utilization=0.8055 total_traversals=6097 buffer_exploded=1 load_exceeded_capacity=0
Edge (9 -> 16) dst_input_port=2 max_buffer_ratio=1 buffer_over_90_fraction=0.029208 buffer_full_fraction=0.029208 max_full_streak=6 edge_capacity=0.222222 max_edge_load=0.179 max_edge_utilization=0.8055 total_traversals=6086 buffer_exploded=1 load_exceeded_capacity=0
Edge (9 -> 17) dst_input_port=2 max_buffer_ratio=1 buffer_over_90_fraction=0.0461789 buffer_full_fraction=0.0461789 max_full_streak=5 edge_capacity=0.222222 max_edge_load=0.181 max_edge_utilization=0.8145 total_traversals=6115 buffer_exploded=1 load_exceeded_capacity=0
Edge (9 -> 27) dst_input_port=0 max_buffer_ratio=1 buffer_over_90_fraction=0.0018763 buffer_full_fraction=0.0018763 max_full_streak=2 edge_capacity=1 max_edge_load=0.271 max_edge_utilization=0.271 total_traversals=9226 buffer_exploded=1 load_exceeded_capacity=0
Edge (10 -> 1) dst_input_port=0 max_buffer_ratio=1 buffer_over_90_fraction=0.000876793 buffer_full_fraction=0.000876793 max_full_streak=1 edge_capacity=1 max_edge_load=0.273 max_edge_utilization=0.273 total_traversals=9222 buffer_exploded=1 load_exceeded_capacity=0
Edge (10 -> 9) dst_input_port=2 max_buffer_ratio=1 buffer_over_90_fraction=0.0224642 buffer_full_fraction=0.0224642 max_full_streak=4 edge_capacity=0.222222 max_edge_load=0.182 max_edge_utilization=0.819 total_traversals=6137 buffer_exploded=1 load_exceeded_capacity=0
Edge (10 -> 11) dst_input_port=3 max_buffer_ratio=1 buffer_over_90_fraction=0.0518409 buffer_full_fraction=0.0518409 max_full_streak=6 edge_capacity=0.222222 max_edge_load=0.183 max_edge_utilization=0.8235 total_traversals=6184 buffer_exploded=1 load_exceeded_capacity=0
Edge (10 -> 12) dst_input_port=3 max_buffer_ratio=1 buffer_over_90_fraction=0.0447193 buffer_full_fraction=0.0447193 max_full_streak=6 edge_capacity=0.222222 max_edge_load=0.181 max_edge_utilization=0.8145 total_traversals=6113 buffer_exploded=1 load_exceeded_capacity=0
Edge (10 -> 13) dst_input_port=3 max_buffer_ratio=1 buffer_over_90_fraction=0.0517102 buffer_full_fraction=0.0517102 max_full_streak=6 edge_capacity=0.222222 max_edge_load=0.181 max_edge_utilization=0.8145 total_traversals=6155 buffer_exploded=1 load_exceeded_capacity=0
Edge (10 -> 14) dst_input_port=3 max_buffer_ratio=1 buffer_over_90_fraction=0.0365475 buffer_full_fraction=0.0365475 max_full_streak=4 edge_capacity=0.222222 max_edge_load=0.181 max_edge_utilization=0.8145 total_traversals=6150 buffer_exploded=1 load_exceeded_capacity=0
Edge (10 -> 15) dst_input_port=3 max_buffer_ratio=1 buffer_over_90_fraction=0.0554786 buffer_full_fraction=0.0554786 max_full_streak=6 edge_capacity=0.222222 max_edge_load=0.181 max_edge_utilization=0.8145 total_traversals=6132 buffer_exploded=1 load_exceeded_capacity=0
Edge (10 -> 16) dst_input_port=3 max_buffer_ratio=1 buffer_over_90_fraction=0.0524976 buffer_full_fraction=0.0524976 max_full_streak=6 edge_capacity=0.222222 max_edge_load=0.182 max_edge_utilization=0.819 total_traversals=6121 buffer_exploded=1 load_exceeded_capacity=0
Edge (10 -> 17) dst_input_port=3 max_buffer_ratio=1 buffer_over_90_fraction=0.0511652 buffer_full_fraction=0.0511652 max_full_streak=7 edge_capacity=0.222222 max_edge_load=0.181 max_edge_utilization=0.8145 total_traversals=6150 buffer_exploded=1 load_exceeded_capacity=0
Edge (10 -> 28) dst_input_port=0 max_buffer_ratio=1 buffer_over_90_fraction=0.000719071 buffer_full_fraction=0.000719071 max_full_streak=1 edge_capacity=1 max_edge_load=0.273 max_edge_utilization=0.273 total_traversals=9224 buffer_exploded=1 load_exceeded_capacity=0
Edge (11 -> 2) dst_input_port=0 max_buffer_ratio=1 buffer_over_90_fraction=0.000333257 buffer_full_fraction=0.000333257 max_full_streak=1 edge_capacity=1 max_edge_load=0.273 max_edge_utilization=0.273 total_traversals=9222 buffer_exploded=1 load_exceeded_capacity=0
Edge (11 -> 9) dst_input_port=3 max_buffer_ratio=1 buffer_over_90_fraction=0.0414029 buffer_full_fraction=0.0414029 max_full_streak=6 edge_capacity=0.222222 max_edge_load=0.181 max_edge_utilization=0.8145 total_traversals=6144 buffer_exploded=1 load_exceeded_capacity=0
Edge (11 -> 10) dst_input_port=3 max_buffer_ratio=1 buffer_over_90_fraction=0.0338454 buffer_full_fraction=0.0338454 max_full_streak=6 edge_capacity=0.222222 max_edge_load=0.182 max_edge_utilization=0.819 total_traversals=6143 buffer_exploded=1 load_exceeded_capacity=0
Edge (11 -> 12) dst_input_port=4 max_buffer_ratio=1 buffer_over_90_fraction=0.0431083 buffer_full_fraction=0.0431083 max_full_streak=7 edge_capacity=0.222222 max_edge_load=0.181 max_edge_utilization=0.8145 total_traversals=6120 buffer_exploded=1 load_exceeded_capacity=0
Edge (11 -> 13) dst_input_port=4 max_buffer_ratio=1 buffer_over_90_fraction=0.0398827 buffer_full_fraction=0.0398827 max_full_streak=7 edge_capacity=0.222222 max_edge_load=0.183 max_edge_utilization=0.8235 total_traversals=6162 buffer_exploded=1 load_exceeded_capacity=0
Edge (11 -> 14) dst_input_port=4 max_buffer_ratio=1 buffer_over_90_fraction=0.0524615 buffer_full_fraction=0.0524615 max_full_streak=7 edge_capacity=0.222222 max_edge_load=0.182 max_edge_utilization=0.819 total_traversals=6157 buffer_exploded=1 load_exceeded_capacity=0
Edge (11 -> 15) dst_input_port=4 max_buffer_ratio=1 buffer_over_90_fraction=0.0472865 buffer_full_fraction=0.0472865 max_full_streak=6 edge_capacity=0.222222 max_edge_load=0.182 max_edge_utilization=0.819 total_traversals=6139 buffer_exploded=1 load_exceeded_capacity=0
Edge (11 -> 16) dst_input_port=4 max_buffer_ratio=1 buffer_over_90_fraction=0.0359778 buffer_full_fraction=0.0359778 max_full_streak=6 edge_capacity=0.222222 max_edge_load=0.181 max_edge_utilization=0.8145 total_traversals=6128 buffer_exploded=1 load_exceeded_capacity=0
Edge (11 -> 17) dst_input_port=4 max_buffer_ratio=1 buffer_over_90_fraction=0.0415804 buffer_full_fraction=0.0415804 max_full_streak=6 edge_capacity=0.222222 max_edge_load=0.181 max_edge_utilization=0.8145 total_traversals=6157 buffer_exploded=1 load_exceeded_capacity=0
Edge (11 -> 29) dst_input_port=0 max_buffer_ratio=1 buffer_over_90_fraction=0.000561275 buffer_full_fraction=0.000561275 max_full_streak=1 edge_capacity=1 max_edge_load=0.273 max_edge_utilization=0.273 total_traversals=9224 buffer_exploded=1 load_exceeded_capacity=0
Edge (12 -> 3) dst_input_port=0 max_buffer_ratio=1 buffer_over_90_fraction=0.00108755 buffer_full_fraction=0.00108755 max_full_streak=1 edge_capacity=1 max_edge_load=0.274 max_edge_utilization=0.274 total_traversals=9222 buffer_exploded=1 load_exceeded_capacity=0
Edge (12 -> 9) dst_input_port=4 max_buffer_ratio=1 buffer_over_90_fraction=0.0478236 buffer_full_fraction=0.0478236 max_full_streak=5 edge_capacity=0.222222 max_edge_load=0.181 max_edge_utilization=0.8145 total_traversals=6120 buffer_exploded=1 load_exceeded_capacity=0
Edge (12 -> 10) dst_input_port=4 max_buffer_ratio=1 buffer_over_90_fraction=0.0550538 buffer_full_fraction=0.0550538 max_full_streak=6 edge_capacity=0.222222 max_edge_load=0.18 max_edge_utilization=0.81 total_traversals=6120 buffer_exploded=1 load_exceeded_capacity=0
Edge (12 -> 11) dst_input_port=4 max_buffer_ratio=1 buffer_over_90_fraction=0.0546345 buffer_full_fraction=0.0546345 max_full_streak=7 edge_capacity=0.222222 max_edge_load=0.182 max_edge_utilization=0.819 total_traversals=6168 buffer_exploded=1 load_exceeded_capacity=0
Edge (12 -> 13) dst_input_port=5 max_buffer_ratio=1 buffer_over_90_fraction=0.0438735 buffer_full_fraction=0.0438735 max_full_streak=6 edge_capacity=0.222222 max_edge_load=0.183 max_edge_utilization=0.8235 total_traversals=6139 buffer_exploded=1 load_exceeded_capacity=0
Edge (12 -> 14) dst_input_port=5 max_buffer_ratio=1 buffer_over_90_fraction=0.0698671 buffer_full_fraction=0.0698671 max_full_streak=6 edge_capacity=0.222222 max_edge_load=0.181 max_edge_utilization=0.8145 total_traversals=6134 buffer_exploded=1 load_exceeded_capacity=0
Edge (12 -> 15) dst_input_port=5 max_buffer_ratio=1 buffer_over_90_fraction=0.0227093 buffer_full_fraction=0.0227093 max_full_streak=5 edge_capacity=0.222222 max_edge_load=0.183 max_edge_utilization=0.8235 total_traversals=6118 buffer_exploded=1 load_exceeded_capacity=0
Edge (12 -> 16) dst_input_port=5 max_buffer_ratio=1 buffer_over_90_fraction=0.0512951 buffer_full_fraction=0.0512951 max_full_streak=4 edge_capacity=0.222222 max_edge_load=0.181 max_edge_utilization=0.8145 total_traversals=6105 buffer_exploded=1 load_exceeded_capacity=0
Edge (12 -> 17) dst_input_port=5 max_buffer_ratio=1 buffer_over_90_fraction=0.0509286 buffer_full_fraction=0.0509286 max_full_streak=6 edge_capacity=0.222222 max_edge_load=0.182 max_edge_utilization=0.819 total_traversals=6134 buffer_exploded=1 load_exceeded_capacity=0
Edge (12 -> 30) dst_input_port=0 max_buffer_ratio=1 buffer_over_90_fraction=0.00015795 buffer_full_fraction=0.00015795 max_full_streak=1 edge_capacity=1 max_edge_load=0.273 max_edge_utilization=0.273 total_traversals=9224 buffer_exploded=1 load_exceeded_capacity=0
Edge (13 -> 4) dst_input_port=0 max_buffer_ratio=1 buffer_over_90_fraction=0.00012282 buffer_full_fraction=0.00012282 max_full_streak=1 edge_capacity=1 max_edge_load=0.272 max_edge_utilization=0.272 total_traversals=9222 buffer_exploded=1 load_exceeded_capacity=0
Edge (13 -> 9) dst_input_port=5 max_buffer_ratio=1 buffer_over_90_fraction=0.0570938 buffer_full_fraction=0.0570938 max_full_streak=6 edge_capacity=0.222222 max_edge_load=0.179 max_edge_utilization=0.8055 total_traversals=6144 buffer_exploded=1 load_exceeded_capacity=0
Edge (13 -> 10) dst_input_port=5 max_buffer_ratio=1 buffer_over_90_fraction=0.0401957 buffer_full_fraction=0.0401957 max_full_streak=5 edge_capacity=0.222222 max_edge_load=0.179 max_edge_utilization=0.8055 total_traversals=6145 buffer_exploded=1 load_exceeded_capacity=0
Edge (13 -> 11) dst_input_port=5 max_buffer_ratio=1 buffer_over_90_fraction=0.0588947 buffer_full_fraction=0.0588947 max_full_streak=7 edge_capacity=0.222222 max_edge_load=0.181 max_edge_utilization=0.8145 total_traversals=6193 buffer_exploded=1 load_exceeded_capacity=0
Edge (13 -> 12) dst_input_port=5 max_buffer_ratio=1 buffer_over_90_fraction=0.0414437 buffer_full_fraction=0.0414437 max_full_streak=5 edge_capacity=0.222222 max_edge_load=0.181 max_edge_utilization=0.8145 total_traversals=6122 buffer_exploded=1 load_exceeded_capacity=0
Edge (13 -> 14) dst_input_port=6 max_buffer_ratio=1 buffer_over_90_fraction=0.0468072 buffer_full_fraction=0.0468072 max_full_streak=6 edge_capacity=0.222222 max_edge_load=0.183 max_edge_utilization=0.8235 total_traversals=6158 buffer_exploded=1 load_exceeded_capacity=0
Edge (13 -> 15) dst_input_port=6 max_buffer_ratio=1 buffer_over_90_fraction=0.0548984 buffer_full_fraction=0.0548984 max_full_streak=6 edge_capacity=0.222222 max_edge_load=0.181 max_edge_utilization=0.8145 total_traversals=6140 buffer_exploded=1 load_exceeded_capacity=0
Edge (13 -> 16) dst_input_port=6 max_buffer_ratio=1 buffer_over_90_fraction=0.0323476 buffer_full_fraction=0.0323476 max_full_streak=6 edge_capacity=0.222222 max_edge_load=0.18 max_edge_utilization=0.81 total_traversals=6128 buffer_exploded=1 load_exceeded_capacity=0
Edge (13 -> 17) dst_input_port=6 max_buffer_ratio=1 buffer_over_90_fraction=0.0518025 buffer_full_fraction=0.0518025 max_full_streak=6 edge_capacity=0.222222 max_edge_load=0.181 max_edge_utilization=0.8145 total_traversals=6157 buffer_exploded=1 load_exceeded_capacity=0
Edge (13 -> 31) dst_input_port=0 max_buffer_ratio=1 buffer_over_90_fraction=0.00110567 buffer_full_fraction=0.00110567 max_full_streak=1 edge_capacity=1 max_edge_load=0.272 max_edge_utilization=0.272 total_traversals=9223 buffer_exploded=1 load_exceeded_capacity=0
Edge (14 -> 5) dst_input_port=0 max_buffer_ratio=1 buffer_over_90_fraction=0.00124581 buffer_full_fraction=0.00124581 max_full_streak=3 edge_capacity=1 max_edge_load=0.273 max_edge_utilization=0.273 total_traversals=9220 buffer_exploded=1 load_exceeded_capacity=0
Edge (14 -> 9) dst_input_port=6 max_buffer_ratio=1 buffer_over_90_fraction=0.0688899 buffer_full_fraction=0.0688899 max_full_streak=6 edge_capacity=0.222222 max_edge_load=0.18 max_edge_utilization=0.81 total_traversals=6127 buffer_exploded=1 load_exceeded_capacity=0
Edge (14 -> 10) dst_input_port=6 max_buffer_ratio=1 buffer_over_90_fraction=0.0507304 buffer_full_fraction=0.0507304 max_full_streak=6 edge_capacity=0.222222 max_edge_load=0.181 max_edge_utilization=0.8145 total_traversals=6128 buffer_exploded=1 load_exceeded_capacity=0
Edge (14 -> 11) dst_input_port=6 max_buffer_ratio=1 buffer_over_90_fraction=0.0321047 buffer_full_fraction=0.0321047 max_full_streak=5 edge_capacity=0.222222 max_edge_load=0.181 max_edge_utilization=0.8145 total_traversals=6176 buffer_exploded=1 load_exceeded_capacity=0
Edge (14 -> 12) dst_input_port=6 max_buffer_ratio=1 buffer_over_90_fraction=0.0524395 buffer_full_fraction=0.0524395 max_full_streak=5 edge_capacity=0.222222 max_edge_load=0.179 max_edge_utilization=0.8055 total_traversals=6105 buffer_exploded=1 load_exceeded_capacity=0
Edge (14 -> 13) dst_input_port=6 max_buffer_ratio=1 buffer_over_90_fraction=0.0593705 buffer_full_fraction=0.0593705 max_full_streak=8 edge_capacity=0.222222 max_edge_load=0.183 max_edge_utilization=0.8235 total_traversals=6147 buffer_exploded=1 load_exceeded_capacity=0
Edge (14 -> 15) dst_input_port=7 max_buffer_ratio=1 buffer_over_90_fraction=0.0538525 buffer_full_fraction=0.0538525 max_full_streak=4 edge_capacity=0.222222 max_edge_load=0.183 max_edge_utilization=0.8235 total_traversals=6123 buffer_exploded=1 load_exceeded_capacity=0
Edge (14 -> 16) dst_input_port=7 max_buffer_ratio=1 buffer_over_90_fraction=0.0512938 buffer_full_fraction=0.0512938 max_full_streak=5 edge_capacity=0.222222 max_edge_load=0.18 max_edge_utilization=0.81 total_traversals=6111 buffer_exploded=1 load_exceeded_capacity=0
Edge (14 -> 17) dst_input_port=7 max_buffer_ratio=1 buffer_over_90_fraction=0.0366673 buffer_full_fraction=0.0366673 max_full_streak=6 edge_capacity=0.222222 max_edge_load=0.181 max_edge_utilization=0.8145 total_traversals=6140 buffer_exploded=1 load_exceeded_capacity=0
Edge (14 -> 32) dst_input_port=0 max_buffer_ratio=1 buffer_over_90_fraction=0.000491633 buffer_full_fraction=0.000491633 max_full_streak=1 edge_capacity=1 max_edge_load=0.272 max_edge_utilization=0.272 total_traversals=9223 buffer_exploded=1 load_exceeded_capacity=0
Edge (15 -> 6) dst_input_port=0 max_buffer_ratio=1 buffer_over_90_fraction=0.00022813 buffer_full_fraction=0.00022813 max_full_streak=1 edge_capacity=1 max_edge_load=0.272 max_edge_utilization=0.272 total_traversals=9220 buffer_exploded=1 load_exceeded_capacity=0
Edge (15 -> 9) dst_input_port=7 max_buffer_ratio=1 buffer_over_90_fraction=0.0183597 buffer_full_fraction=0.0183597 max_full_streak=7 edge_capacity=0.222222 max_edge_load=0.179 max_edge_utilization=0.8055 total_traversals=6124 buffer_exploded=1 load_exceeded_capacity=0
Edge (15 -> 10) dst_input_port=7 max_buffer_ratio=1 buffer_over_90_fraction=0.0410615 buffer_full_fraction=0.0410615 max_full_streak=6 edge_capacity=0.222222 max_edge_load=0.179 max_edge_utilization=0.8055 total_traversals=6124 buffer_exploded=1 load_exceeded_capacity=0
Edge (15 -> 11) dst_input_port=7 max_buffer_ratio=1 buffer_over_90_fraction=0.0384062 buffer_full_fraction=0.0384062 max_full_streak=5 edge_capacity=0.222222 max_edge_load=0.181 max_edge_utilization=0.8145 total_traversals=6172 buffer_exploded=1 load_exceeded_capacity=0
Edge (15 -> 12) dst_input_port=7 max_buffer_ratio=1 buffer_over_90_fraction=0.0552719 buffer_full_fraction=0.0552719 max_full_streak=6 edge_capacity=0.222222 max_edge_load=0.179 max_edge_utilization=0.8055 total_traversals=6101 buffer_exploded=1 load_exceeded_capacity=0
Edge (15 -> 13) dst_input_port=7 max_buffer_ratio=1 buffer_over_90_fraction=0.0598354 buffer_full_fraction=0.0598354 max_full_streak=7 edge_capacity=0.222222 max_edge_load=0.181 max_edge_utilization=0.8145 total_traversals=6142 buffer_exploded=1 load_exceeded_capacity=0
Edge (15 -> 14) dst_input_port=7 max_buffer_ratio=1 buffer_over_90_fraction=0.0578183 buffer_full_fraction=0.0578183 max_full_streak=7 edge_capacity=0.222222 max_edge_load=0.181 max_edge_utilization=0.8145 total_traversals=6137 buffer_exploded=1 load_exceeded_capacity=0
Edge (15 -> 16) dst_input_port=8 max_buffer_ratio=1 buffer_over_90_fraction=0.0318872 buffer_full_fraction=0.0318872 max_full_streak=6 edge_capacity=0.222222 max_edge_load=0.18 max_edge_utilization=0.81 total_traversals=6107 buffer_exploded=1 load_exceeded_capacity=0
Edge (15 -> 17) dst_input_port=8 max_buffer_ratio=1 buffer_over_90_fraction=0.0356911 buffer_full_fraction=0.0356911 max_full_streak=6 edge_capacity=0.222222 max_edge_load=0.179 max_edge_utilization=0.8055 total_traversals=6136 buffer_exploded=1 load_exceeded_capacity=0
Edge (15 -> 33) dst_input_port=0 max_buffer_ratio=1 buffer_over_90_fraction=0.00217838 buffer_full_fraction=0.00217838 max_full_streak=1 edge_capacity=1 max_edge_load=0.273 max_edge_utilization=0.273 total_traversals=9223 buffer_exploded=1 load_exceeded_capacity=0
Edge (16 -> 7) dst_input_port=0 max_buffer_ratio=1 buffer_over_90_fraction=0.000684427 buffer_full_fraction=0.000684427 max_full_streak=1 edge_capacity=1 max_edge_load=0.274 max_edge_utilization=0.274 total_traversals=9220 buffer_exploded=1 load_exceeded_capacity=0
Edge (16 -> 9) dst_input_port=8 max_buffer_ratio=1 buffer_over_90_fraction=0.0402939 buffer_full_fraction=0.0402939 max_full_streak=5 edge_capacity=0.222222 max_edge_load=0.181 max_edge_utilization=0.8145 total_traversals=6129 buffer_exploded=1 load_exceeded_capacity=0
Edge (16 -> 10) dst_input_port=8 max_buffer_ratio=1 buffer_over_90_fraction=0.0370669 buffer_full_fraction=0.0370669 max_full_streak=6 edge_capacity=0.222222 max_edge_load=0.181 max_edge_utilization=0.8145 total_traversals=6129 buffer_exploded=1 load_exceeded_capacity=0
Edge (16 -> 11) dst_input_port=8 max_buffer_ratio=1 buffer_over_90_fraction=0.0588504 buffer_full_fraction=0.0588504 max_full_streak=5 edge_capacity=0.222222 max_edge_load=0.182 max_edge_utilization=0.819 total_traversals=6176 buffer_exploded=1 load_exceeded_capacity=0
Edge (16 -> 12) dst_input_port=8 max_buffer_ratio=1 buffer_over_90_fraction=0.0296018 buffer_full_fraction=0.0296018 max_full_streak=5 edge_capacity=0.222222 max_edge_load=0.18 max_edge_utilization=0.81 total_traversals=6106 buffer_exploded=1 load_exceeded_capacity=0
Edge (16 -> 13) dst_input_port=8 max_buffer_ratio=1 buffer_over_90_fraction=0.0626582 buffer_full_fraction=0.0626582 max_full_streak=7 edge_capacity=0.222222 max_edge_load=0.181 max_edge_utilization=0.8145 total_traversals=6148 buffer_exploded=1 load_exceeded_capacity=0
Edge (16 -> 14) dst_input_port=8 max_buffer_ratio=1 buffer_over_90_fraction=0.0464041 buffer_full_fraction=0.0464041 max_full_streak=5 edge_capacity=0.222222 max_edge_load=0.183 max_edge_utilization=0.8235 total_traversals=6143 buffer_exploded=1 load_exceeded_capacity=0
Edge (16 -> 15) dst_input_port=8 max_buffer_ratio=1 buffer_over_90_fraction=0.0385311 buffer_full_fraction=0.0385311 max_full_streak=5 edge_capacity=0.222222 max_edge_load=0.18 max_edge_utilization=0.81 total_traversals=6125 buffer_exploded=1 load_exceeded_capacity=0
Edge (16 -> 17) dst_input_port=9 max_buffer_ratio=1 buffer_over_90_fraction=0.0435744 buffer_full_fraction=0.0435744 max_full_streak=5 edge_capacity=0.222222 max_edge_load=0.182 max_edge_utilization=0.819 total_traversals=6142 buffer_exploded=1 load_exceeded_capacity=0
Edge (16 -> 34) dst_input_port=0 max_buffer_ratio=1 buffer_over_90_fraction=0.00119489 buffer_full_fraction=0.00119489 max_full_streak=2 edge_capacity=1 max_edge_load=0.272 max_edge_utilization=0.272 total_traversals=9223 buffer_exploded=1 load_exceeded_capacity=0
Edge (17 -> 8) dst_input_port=0 max_buffer_ratio=1 buffer_over_90_fraction=0.00244014 buffer_full_fraction=0.00244014 max_full_streak=2 edge_capacity=1 max_edge_load=0.273 max_edge_utilization=0.273 total_traversals=9220 buffer_exploded=1 load_exceeded_capacity=0
Edge (17 -> 9) dst_input_port=9 max_buffer_ratio=1 buffer_over_90_fraction=0.0428486 buffer_full_fraction=0.0428486 max_full_streak=6 edge_capacity=0.222222 max_edge_load=0.181 max_edge_utilization=0.8145 total_traversals=6136 buffer_exploded=1 load_exceeded_capacity=0
Edge (17 -> 10) dst_input_port=9 max_buffer_ratio=1 buffer_over_90_fraction=0.0655971 buffer_full_fraction=0.0655971 max_full_streak=10 edge_capacity=0.222222 max_edge_load=0.18 max_edge_utilization=0.81 total_traversals=6136 buffer_exploded=1 load_exceeded_capacity=0
Edge (17 -> 11) dst_input_port=9 max_buffer_ratio=1 buffer_over_90_fraction=0.0523879 buffer_full_fraction=0.0523879 max_full_streak=5 edge_capacity=0.222222 max_edge_load=0.181 max_edge_utilization=0.8145 total_traversals=6184 buffer_exploded=1 load_exceeded_capacity=0
Edge (17 -> 12) dst_input_port=9 max_buffer_ratio=1 buffer_over_90_fraction=0.0560399 buffer_full_fraction=0.0560399 max_full_streak=5 edge_capacity=0.222222 max_edge_load=0.179 max_edge_utilization=0.8055 total_traversals=6114 buffer_exploded=1 load_exceeded_capacity=0
Edge (17 -> 13) dst_input_port=9 max_buffer_ratio=1 buffer_over_90_fraction=0.0236679 buffer_full_fraction=0.0236679 max_full_streak=5 edge_capacity=0.222222 max_edge_load=0.181 max_edge_utilization=0.8145 total_traversals=6156 buffer_exploded=1 load_exceeded_capacity=0
Edge (17 -> 14) dst_input_port=9 max_buffer_ratio=1 buffer_over_90_fraction=0.069046 buffer_full_fraction=0.069046 max_full_streak=6 edge_capacity=0.222222 max_edge_load=0.182 max_edge_utilization=0.819 total_traversals=6150 buffer_exploded=1 load_exceeded_capacity=0
Edge (17 -> 15) dst_input_port=9 max_buffer_ratio=1 buffer_over_90_fraction=0.0556959 buffer_full_fraction=0.0556959 max_full_streak=5 edge_capacity=0.222222 max_edge_load=0.181 max_edge_utilization=0.8145 total_traversals=6132 buffer_exploded=1 load_exceeded_capacity=0
Edge (17 -> 16) dst_input_port=9 max_buffer_ratio=1 buffer_over_90_fraction=0.0312884 buffer_full_fraction=0.0312884 max_full_streak=8 edge_capacity=0.222222 max_edge_load=0.18 max_edge_utilization=0.81 total_traversals=6120 buffer_exploded=1 load_exceeded_capacity=0
Edge (17 -> 35) dst_input_port=0 max_buffer_ratio=1 buffer_over_90_fraction=0.00110713 buffer_full_fraction=0.00110713 max_full_streak=1 edge_capacity=1 max_edge_load=0.273 max_edge_utilization=0.273 total_traversals=9223 buffer_exploded=1 load_exceeded_capacity=0
Edge (18 -> 0) dst_input_port=1 max_buffer_ratio=1 buffer_over_90_fraction=0.00122727 buffer_full_fraction=0.00122727 max_full_streak=1 edge_capacity=1 max_edge_load=0.27 max_edge_utilization=0.27 total_traversals=9201 buffer_exploded=1 load_exceeded_capacity=0
Edge (18 -> 19) dst_input_port=2 max_buffer_ratio=1 buffer_over_90_fraction=0.0523012 buffer_full_fraction=0.0523012 max_full_streak=6 edge_capacity=0.222222 max_edge_load=0.18 max_edge_utilization=0.81 total_traversals=6123 buffer_exploded=1 load_exceeded_capacity=0
Edge (18 -> 20) dst_input_port=2 max_buffer_ratio=1 buffer_over_90_fraction=0.0520472 buffer_full_fraction=0.0520472 max_full_streak=6 edge_capacity=0.222222 max_edge_load=0.181 max_edge_utilization=0.8145 total_traversals=6124 buffer_exploded=1 load_exceeded_capacity=0
Edge (18 -> 21) dst_input_port=2 max_buffer_ratio=1 buffer_over_90_fraction=0.0214232 buffer_full_fraction=0.0214232 max_full_streak=5 edge_capacity=0.222222 max_edge_load=0.181 max_edge_utilization=0.8145 total_traversals=6122 buffer_exploded=1 load_exceeded_capacity=0
Edge (18 -> 22) dst_input_port=2 max_buffer_ratio=1 buffer_over_90_fraction=0.0305888 buffer_full_fraction=0.0305888 max_full_streak=5 edge_capacity=0.222222 max_edge_load=0.18 max_edge_utilization=0.81 total_traversals=6138 buffer_exploded=1 load_exceeded_capacity=0
Edge (18 -> 23) dst_input_port=2 max_buffer_ratio=1 buffer_over_90_fraction=0.0390754 buffer_full_fraction=0.0390754 max_full_streak=5 edge_capacity=0.222222 max_edge_load=0.18 max_edge_utilization=0.81 total_traversals=6114 buffer_exploded=1 load_exceeded_capacity=0
Edge (18 -> 24) dst_input_port=2 max_buffer_ratio=1 buffer_over_90_fraction=0.0410839 buffer_full_fraction=0.0410839 max_full_streak=6 edge_capacity=0.222222 max_edge_load=0.181 max_edge_utilization=0.8145 total_traversals=6146 buffer_exploded=1 load_exceeded_capacity=0
Edge (18 -> 25) dst_input_port=2 max_buffer_ratio=1 buffer_over_90_fraction=0.0127122 buffer_full_fraction=0.0127122 max_full_streak=5 edge_capacity=0.222222 max_edge_load=0.182 max_edge_utilization=0.819 total_traversals=6155 buffer_exploded=1 load_exceeded_capacity=0
Edge (18 -> 26) dst_input_port=2 max_buffer_ratio=1 buffer_over_90_fraction=0.0255484 buffer_full_fraction=0.0255484 max_full_streak=5 edge_capacity=0.222222 max_edge_load=0.181 max_edge_utilization=0.8145 total_traversals=6115 buffer_exploded=1 load_exceeded_capacity=0
Edge (18 -> 27) dst_input_port=1 max_buffer_ratio=1 buffer_over_90_fraction=0.00338353 buffer_full_fraction=0.00338353 max_full_streak=2 edge_capacity=1 max_edge_load=0.272 max_edge_utilization=0.272 total_traversals=9203 buffer_exploded=1 load_exceeded_capacity=0
Edge (19 -> 1) dst_input_port=1 max_buffer_ratio=1 buffer_over_90_fraction=0.00210412 buffer_full_fraction=0.00210412 max_full_streak=2 edge_capacity=1 max_edge_load=0.271 max_edge_utilization=0.271 total_traversals=9201 buffer_exploded=1 load_exceeded_capacity=0
Edge (19 -> 18) dst_input_port=2 max_buffer_ratio=1 buffer_over_90_fraction=0.031416 buffer_full_fraction=0.031416 max_full_streak=6 edge_capacity=0.222222 max_edge_load=0.181 max_edge_utilization=0.8145 total_traversals=6138 buffer_exploded=1 load_exceeded_capacity=0
Edge (19 -> 20) dst_input_port=3 max_buffer_ratio=1 buffer_over_90_fraction=0.0184354 buffer_full_fraction=0.0184354 max_full_streak=6 edge_capacity=0.222222 max_edge_load=0.18 max_edge_utilization=0.81 total_traversals=6128 buffer_exploded=1 load_exceeded_capacity=0
Edge (19 -> 21) dst_input_port=3 max_buffer_ratio=1 buffer_over_90_fraction=0.0406796 buffer_full_fraction=0.0406796 max_full_streak=7 edge_capacity=0.222222 max_edge_load=0.181 max_edge_utilization=0.8145 total_traversals=6127 buffer_exploded=1 load_exceeded_capacity=0
Edge (19 -> 22) dst_input_port=3 max_buffer_ratio=1 buffer_over_90_fraction=0.0422426 buffer_full_fraction=0.0422426 max_full_streak=4 edge_capacity=0.222222 max_edge_load=0.18 max_edge_utilization=0.81 total_traversals=6143 buffer_exploded=1 load_exceeded_capacity=0
Edge (19 -> 23) dst_input_port=3 max_buffer_ratio=1 buffer_over_90_fraction=0.0398063 buffer_full_fraction=0.0398063 max_full_streak=6 edge_capacity=0.222222 max_edge_load=0.181 max_edge_utilization=0.8145 total_traversals=6119 buffer_exploded=1 load_exceeded_capacity=0
Edge (19 -> 24) dst_input_port=3 max_buffer_ratio=1 buffer_over_90_fraction=0.038228 buffer_full_fraction=0.038228 max_full_streak=6 edge_capacity=0.222222 max_edge_load=0.18 max_edge_utilization=0.81 total_traversals=6151 buffer_exploded=1 load_exceeded_capacity=0
Edge (19 -> 25) dst_input_port=3 max_buffer_ratio=1 buffer_over_90_fraction=0.0220494 buffer_full_fraction=0.0220494 max_full_streak=5 edge_capacity=0.222222 max_edge_load=0.181 max_edge_utilization=0.8145 total_traversals=6160 buffer_exploded=1 load_exceeded_capacity=0
Edge (19 -> 26) dst_input_port=3 max_buffer_ratio=1 buffer_over_90_fraction=0.0631992 buffer_full_fraction=0.0631992 max_full_streak=7 edge_capacity=0.222222 max_edge_load=0.181 max_edge_utilization=0.8145 total_traversals=6120 buffer_exploded=1 load_exceeded_capacity=0
Edge (19 -> 28) dst_input_port=1 max_buffer_ratio=1 buffer_over_90_fraction=0.00056101 buffer_full_fraction=0.00056101 max_full_streak=1 edge_capacity=1 max_edge_load=0.273 max_edge_utilization=0.273 total_traversals=9202 buffer_exploded=1 load_exceeded_capacity=0
Edge (20 -> 2) dst_input_port=1 max_buffer_ratio=1 buffer_over_90_fraction=0.00257791 buffer_full_fraction=0.00257791 max_full_streak=2 edge_capacity=1 max_edge_load=0.271 max_edge_utilization=0.271 total_traversals=9201 buffer_exploded=1 load_exceeded_capacity=0
[...]
Edge (28 -> 34) dst_input_port=3 max_buffer_ratio=1 buffer_over_90_fraction=0.0592768 buffer_full_fraction=0.0592768 max_full_streak=6 edge_capacity=0.222222 max_edge_load=0.181 max_edge_utilization=0.8145 total_traversals=6128 buffer_exploded=1 load_exceeded_capacity=0
Edge (28 -> 35) dst_input_port=3 max_buffer_ratio=1 buffer_over_90_fraction=0.0360209 buffer_full_fraction=0.0360209 max_full_streak=7 edge_capacity=0.222222 max_edge_load=0.181 max_edge_utilization=0.8145 total_traversals=6123 buffer_exploded=1 load_exceeded_capacity=0
Edge (29 -> 11) dst_input_port=1 max_buffer_ratio=1 buffer_over_90_fraction=0.000315645 buffer_full_fraction=0.000315645 max_full_streak=1 edge_capacity=1 max_edge_load=0.277 max_edge_utilization=0.277 total_traversals=9262 buffer_exploded=1 load_exceeded_capacity=0
Edge (29 -> 20) dst_input_port=1 max_buffer_ratio=1 buffer_over_90_fraction=0.00198239 buffer_full_fraction=0.00198239 max_full_streak=1 edge_capacity=1 max_edge_load=0.27 max_edge_utilization=0.27 total_traversals=9234 buffer_exploded=1 load_exceeded_capacity=0
Edge (29 -> 27) dst_input_port=3 max_buffer_ratio=1 buffer_over_90_fraction=0.0424606 buffer_full_fraction=0.0424606 max_full_streak=6 edge_capacity=0.222222 max_edge_load=0.183 max_edge_utilization=0.8235 total_traversals=6183 buffer_exploded=1 load_exceeded_capacity=0
Edge (29 -> 28) dst_input_port=3 max_buffer_ratio=1 buffer_over_90_fraction=0.0334796 buffer_full_fraction=0.0334796 max_full_streak=6 edge_capacity=0.222222 max_edge_load=0.183 max_edge_utilization=0.8235 total_traversals=6184 buffer_exploded=1 load_exceeded_capacity=0
Edge (29 -> 30) dst_input_port=4 max_buffer_ratio=1 buffer_over_90_fraction=0.0389371 buffer_full_fraction=0.0389371 max_full_streak=5 edge_capacity=0.222222 max_edge_load=0.182 max_edge_utilization=0.819 total_traversals=6195 buffer_exploded=1 load_exceeded_capacity=0
Edge (29 -> 31) dst_input_port=4 max_buffer_ratio=1 buffer_over_90_fraction=0.0584645 buffer_full_fraction=0.0584645 max_full_streak=6 edge_capacity=0.222222 max_edge_load=0.182 max_edge_utilization=0.819 total_traversals=6193 buffer_exploded=1 load_exceeded_capacity=0
Edge (29 -> 32) dst_input_port=4 max_buffer_ratio=1 buffer_over_90_fraction=0.0306477 buffer_full_fraction=0.0306477 max_full_streak=5 edge_capacity=0.222222 max_edge_load=0.182 max_edge_utilization=0.819 total_traversals=6182 buffer_exploded=1 load_exceeded_capacity=0
Edge (29 -> 33) dst_input_port=4 max_buffer_ratio=1 buffer_over_90_fraction=0.025465 buffer_full_fraction=0.025465 max_full_streak=5 edge_capacity=0.222222 max_edge_load=0.18 max_edge_utilization=0.81 total_traversals=6165 buffer_exploded=1 load_exceeded_capacity=0
Edge (29 -> 34) dst_input_port=4 max_buffer_ratio=1 buffer_over_90_fraction=0.0528322 buffer_full_fraction=0.0528322 max_full_streak=6 edge_capacity=0.222222 max_edge_load=0.183 max_edge_utilization=0.8235 total_traversals=6176 buffer_exploded=1 load_exceeded_capacity=0
Edge (29 -> 35) dst_input_port=4 max_buffer_ratio=1 buffer_over_90_fraction=0.042325 buffer_full_fraction=0.042325 max_full_streak=5 edge_capacity=0.222222 max_edge_load=0.181 max_edge_utilization=0.8145 total_traversals=6171 buffer_exploded=1 load_exceeded_capacity=0
Edge (30 -> 12) dst_input_port=1 max_buffer_ratio=1 buffer_over_90_fraction=0.00298115 buffer_full_fraction=0.00298115 max_full_streak=2 edge_capacity=1 max_edge_load=0.276 max_edge_utilization=0.276 total_traversals=9262 buffer_exploded=1 load_exceeded_capacity=0
Edge (30 -> 21) dst_input_port=1 max_buffer_ratio=1 buffer_over_90_fraction=0.00107065 buffer_full_fraction=0.00107065 max_full_streak=1 edge_capacity=1 max_edge_load=0.271 max_edge_utilization=0.271 total_traversals=9234 buffer_exploded=1 load_exceeded_capacity=0
Edge (30 -> 27) dst_input_port=4 max_buffer_ratio=1 buffer_over_90_fraction=0.0412483 buffer_full_fraction=0.0412483 max_full_streak=5 edge_capacity=0.222222 max_edge_load=0.181 max_edge_utilization=0.8145 total_traversals=6128 buffer_exploded=1 load_exceeded_capacity=0
Edge (30 -> 28) dst_input_port=4 max_buffer_ratio=1 buffer_over_90_fraction=0.0468766 buffer_full_fraction=0.0468766 max_full_streak=7 edge_capacity=0.222222 max_edge_load=0.181 max_edge_utilization=0.8145 total_traversals=6129 buffer_exploded=1 load_exceeded_capacity=0
Edge (30 -> 29) dst_input_port=4 max_buffer_ratio=1 buffer_over_90_fraction=0.0496603 buffer_full_fraction=0.0496603 max_full_streak=8 edge_capacity=0.222222 max_edge_load=0.18 max_edge_utilization=0.81 total_traversals=6123 buffer_exploded=1 load_exceeded_capacity=0
Edge (30 -> 31) dst_input_port=5 max_buffer_ratio=1 buffer_over_90_fraction=0.0516358 buffer_full_fraction=0.0516358 max_full_streak=8 edge_capacity=0.222222 max_edge_load=0.18 max_edge_utilization=0.81 total_traversals=6137 buffer_exploded=1 load_exceeded_capacity=0
Edge (30 -> 32) dst_input_port=5 max_buffer_ratio=1 buffer_over_90_fraction=0.039941 buffer_full_fraction=0.039941 max_full_streak=5 edge_capacity=0.222222 max_edge_load=0.179 max_edge_utilization=0.8055 total_traversals=6126 buffer_exploded=1 load_exceeded_capacity=0
Edge (30 -> 33) dst_input_port=5 max_buffer_ratio=1 buffer_over_90_fraction=0.0194958 buffer_full_fraction=0.0194958 max_full_streak=5 edge_capacity=0.222222 max_edge_load=0.18 max_edge_utilization=0.81 total_traversals=6110 buffer_exploded=1 load_exceeded_capacity=0
Edge (30 -> 34) dst_input_port=5 max_buffer_ratio=1 buffer_over_90_fraction=0.0490193 buffer_full_fraction=0.0490193 max_full_streak=5 edge_capacity=0.222222 max_edge_load=0.18 max_edge_utilization=0.81 total_traversals=6121 buffer_exploded=1 load_exceeded_capacity=0
Edge (30 -> 35) dst_input_port=5 max_buffer_ratio=1 buffer_over_90_fraction=0.0454721 buffer_full_fraction=0.0454721 max_full_streak=5 edge_capacity=0.222222 max_edge_load=0.18 max_edge_utilization=0.81 total_traversals=6116 buffer_exploded=1 load_exceeded_capacity=0
Edge (31 -> 13) dst_input_port=1 max_buffer_ratio=1 buffer_over_90_fraction=0.000420986 buffer_full_fraction=0.000420986 max_full_streak=1 edge_capacity=1 max_edge_load=0.276 max_edge_utilization=0.276 total_traversals=9261 buffer_exploded=1 load_exceeded_capacity=0
Edge (31 -> 22) dst_input_port=1 max_buffer_ratio=1 buffer_over_90_fraction=0.00136929 buffer_full_fraction=0.00136929 max_full_streak=1 edge_capacity=1 max_edge_load=0.27 max_edge_utilization=0.27 total_traversals=9232 buffer_exploded=1 load_exceeded_capacity=0
Edge (31 -> 27) dst_input_port=5 max_buffer_ratio=1 buffer_over_90_fraction=0.0355769 buffer_full_fraction=0.0355769 max_full_streak=5 edge_capacity=0.222222 max_edge_load=0.182 max_edge_utilization=0.819 total_traversals=6149 buffer_exploded=1 load_exceeded_capacity=0
Edge (31 -> 28) dst_input_port=5 max_buffer_ratio=1 buffer_over_90_fraction=0.0406948 buffer_full_fraction=0.0406948 max_full_streak=6 edge_capacity=0.222222 max_edge_load=0.182 max_edge_utilization=0.819 total_traversals=6151 buffer_exploded=1 load_exceeded_capacity=0
Edge (31 -> 29) dst_input_port=5 max_buffer_ratio=1 buffer_over_90_fraction=0.04375 buffer_full_fraction=0.04375 max_full_streak=5 edge_capacity=0.222222 max_edge_load=0.183 max_edge_utilization=0.8235 total_traversals=6145 buffer_exploded=1 load_exceeded_capacity=0
Edge (31 -> 30) dst_input_port=5 max_buffer_ratio=1 buffer_over_90_fraction=0.0352825 buffer_full_fraction=0.0352825 max_full_streak=5 edge_capacity=0.222222 max_edge_load=0.182 max_edge_utilization=0.819 total_traversals=6162 buffer_exploded=1 load_exceeded_capacity=0
Edge (31 -> 32) dst_input_port=6 max_buffer_ratio=1 buffer_over_90_fraction=0.0434523 buffer_full_fraction=0.0434523 max_full_streak=4 edge_capacity=0.222222 max_edge_load=0.183 max_edge_utilization=0.8235 total_traversals=6148 buffer_exploded=1 load_exceeded_capacity=0
Edge (31 -> 33) dst_input_port=6 max_buffer_ratio=1 buffer_over_90_fraction=0.0545455 buffer_full_fraction=0.0545455 max_full_streak=5 edge_capacity=0.222222 max_edge_load=0.181 max_edge_utilization=0.8145 total_traversals=6130 buffer_exploded=1 load_exceeded_capacity=0
Edge (31 -> 34) dst_input_port=6 max_buffer_ratio=1 buffer_over_90_fraction=0.0707003 buffer_full_fraction=0.0707003 max_full_streak=5 edge_capacity=0.222222 max_edge_load=0.182 max_edge_utilization=0.819 total_traversals=6143 buffer_exploded=1 load_exceeded_capacity=0
Edge (31 -> 35) dst_input_port=6 max_buffer_ratio=1 buffer_over_90_fraction=0.0562046 buffer_full_fraction=0.0562046 max_full_streak=5 edge_capacity=0.222222 max_edge_load=0.181 max_edge_utilization=0.8145 total_traversals=6138 buffer_exploded=1 load_exceeded_capacity=0
Edge (32 -> 14) dst_input_port=1 max_buffer_ratio=1 buffer_over_90_fraction=0.00129818 buffer_full_fraction=0.00129818 max_full_streak=1 edge_capacity=1 max_edge_load=0.276 max_edge_utilization=0.276 total_traversals=9261 buffer_exploded=1 load_exceeded_capacity=0
Edge (32 -> 23) dst_input_port=1 max_buffer_ratio=1 buffer_over_90_fraction=0.000720018 buffer_full_fraction=0.000720018 max_full_streak=1 edge_capacity=1 max_edge_load=0.272 max_edge_utilization=0.272 total_traversals=9232 buffer_exploded=1 load_exceeded_capacity=0
Edge (32 -> 27) dst_input_port=6 max_buffer_ratio=1 buffer_over_90_fraction=0.0407075 buffer_full_fraction=0.0407075 max_full_streak=5 edge_capacity=0.222222 max_edge_load=0.184 max_edge_utilization=0.828 total_traversals=6149 buffer_exploded=1 load_exceeded_capacity=0
Edge (32 -> 28) dst_input_port=6 max_buffer_ratio=1 buffer_over_90_fraction=0.0508293 buffer_full_fraction=0.0508293 max_full_streak=6 edge_capacity=0.222222 max_edge_load=0.18 max_edge_utilization=0.81 total_traversals=6150 buffer_exploded=1 load_exceeded_capacity=0
Edge (32 -> 29) dst_input_port=6 max_buffer_ratio=1 buffer_over_90_fraction=0.0431669 buffer_full_fraction=0.0431669 max_full_streak=7 edge_capacity=0.222222 max_edge_load=0.186 max_edge_utilization=0.837 total_traversals=6144 buffer_exploded=1 load_exceeded_capacity=0
Edge (32 -> 30) dst_input_port=6 max_buffer_ratio=1 buffer_over_90_fraction=0.0207207 buffer_full_fraction=0.0207207 max_full_streak=5 edge_capacity=0.222222 max_edge_load=0.183 max_edge_utilization=0.8235 total_traversals=6161 buffer_exploded=1 load_exceeded_capacity=0
Edge (32 -> 31) dst_input_port=6 max_buffer_ratio=1 buffer_over_90_fraction=0.0529421 buffer_full_fraction=0.0529421 max_full_streak=6 edge_capacity=0.222222 max_edge_load=0.182 max_edge_utilization=0.819 total_traversals=6158 buffer_exploded=1 load_exceeded_capacity=0
Edge (32 -> 33) dst_input_port=7 max_buffer_ratio=1 buffer_over_90_fraction=0.0628504 buffer_full_fraction=0.0628504 max_full_streak=5 edge_capacity=0.222222 max_edge_load=0.18 max_edge_utilization=0.81 total_traversals=6130 buffer_exploded=1 load_exceeded_capacity=0
Edge (32 -> 34) dst_input_port=7 max_buffer_ratio=1 buffer_over_90_fraction=0.044142 buffer_full_fraction=0.044142 max_full_streak=8 edge_capacity=0.222222 max_edge_load=0.185 max_edge_utilization=0.8325 total_traversals=6143 buffer_exploded=1 load_exceeded_capacity=0
Edge (32 -> 35) dst_input_port=7 max_buffer_ratio=1 buffer_over_90_fraction=0.0567742 buffer_full_fraction=0.0567742 max_full_streak=5 edge_capacity=0.222222 max_edge_load=0.182 max_edge_utilization=0.819 total_traversals=6138 buffer_exploded=1 load_exceeded_capacity=0
Edge (33 -> 15) dst_input_port=1 max_buffer_ratio=1 buffer_over_90_fraction=0.00043865 buffer_full_fraction=0.00043865 max_full_streak=1 edge_capacity=1 max_edge_load=0.278 max_edge_utilization=0.278 total_traversals=9261 buffer_exploded=1 load_exceeded_capacity=0
Edge (33 -> 24) dst_input_port=1 max_buffer_ratio=1 buffer_over_90_fraction=0.00100102 buffer_full_fraction=0.00100102 max_full_streak=1 edge_capacity=1 max_edge_load=0.271 max_edge_utilization=0.271 total_traversals=9232 buffer_exploded=1 load_exceeded_capacity=0
Edge (33 -> 27) dst_input_port=7 max_buffer_ratio=1 buffer_over_90_fraction=0.0640425 buffer_full_fraction=0.0640425 max_full_streak=6 edge_capacity=0.222222 max_edge_load=0.183 max_edge_utilization=0.8235 total_traversals=6146 buffer_exploded=1 load_exceeded_capacity=0
Edge (33 -> 28) dst_input_port=7 max_buffer_ratio=1 buffer_over_90_fraction=0.0604779 buffer_full_fraction=0.0604779 max_full_streak=5 edge_capacity=0.222222 max_edge_load=0.181 max_edge_utilization=0.8145 total_traversals=6147 buffer_exploded=1 load_exceeded_capacity=0
Edge (33 -> 29) dst_input_port=7 max_buffer_ratio=1 buffer_over_90_fraction=0.0515538 buffer_full_fraction=0.0515538 max_full_streak=9 edge_capacity=0.222222 max_edge_load=0.183 max_edge_utilization=0.8235 total_traversals=6141 buffer_exploded=1 load_exceeded_capacity=0
Edge (33 -> 30) dst_input_port=7 max_buffer_ratio=1 buffer_over_90_fraction=0.0521179 buffer_full_fraction=0.0521179 max_full_streak=6 edge_capacity=0.222222 max_edge_load=0.181 max_edge_utilization=0.8145 total_traversals=6158 buffer_exploded=1 load_exceeded_capacity=0
Edge (33 -> 31) dst_input_port=7 max_buffer_ratio=1 buffer_over_90_fraction=0.0441158 buffer_full_fraction=0.0441158 max_full_streak=6 edge_capacity=0.222222 max_edge_load=0.181 max_edge_utilization=0.8145 total_traversals=6154 buffer_exploded=1 load_exceeded_capacity=0
Edge (33 -> 32) dst_input_port=7 max_buffer_ratio=1 buffer_over_90_fraction=0.0356296 buffer_full_fraction=0.0356296 max_full_streak=6 edge_capacity=0.222222 max_edge_load=0.183 max_edge_utilization=0.8235 total_traversals=6143 buffer_exploded=1 load_exceeded_capacity=0
Edge (33 -> 34) dst_input_port=8 max_buffer_ratio=1 buffer_over_90_fraction=0.0411686 buffer_full_fraction=0.0411686 max_full_streak=8 edge_capacity=0.222222 max_edge_load=0.182 max_edge_utilization=0.819 total_traversals=6139 buffer_exploded=1 load_exceeded_capacity=0
Edge (33 -> 35) dst_input_port=8 max_buffer_ratio=1 buffer_over_90_fraction=0.0521754 buffer_full_fraction=0.0521754 max_full_streak=6 edge_capacity=0.222222 max_edge_load=0.181 max_edge_utilization=0.8145 total_traversals=6134 buffer_exploded=1 load_exceeded_capacity=0
Edge (34 -> 16) dst_input_port=1 max_buffer_ratio=1 buffer_over_90_fraction=0.000421149 buffer_full_fraction=0.000421149 max_full_streak=1 edge_capacity=1 max_edge_load=0.278 max_edge_utilization=0.278 total_traversals=9260 buffer_exploded=1 load_exceeded_capacity=0
Edge (34 -> 25) dst_input_port=1 max_buffer_ratio=1 buffer_over_90_fraction=0.000720107 buffer_full_fraction=0.000720107 max_full_streak=1 edge_capacity=1 max_edge_load=0.27 max_edge_utilization=0.27 total_traversals=9232 buffer_exploded=1 load_exceeded_capacity=0
Edge (34 -> 27) dst_input_port=8 max_buffer_ratio=1 buffer_over_90_fraction=0.0419004 buffer_full_fraction=0.0419004 max_full_streak=6 edge_capacity=0.222222 max_edge_load=0.181 max_edge_utilization=0.8145 total_traversals=6167 buffer_exploded=1 load_exceeded_capacity=0
Edge (34 -> 28) dst_input_port=8 max_buffer_ratio=1 buffer_over_90_fraction=0.0595412 buffer_full_fraction=0.0595412 max_full_streak=6 edge_capacity=0.222222 max_edge_load=0.181 max_edge_utilization=0.8145 total_traversals=6169 buffer_exploded=1 load_exceeded_capacity=0
Edge (34 -> 29) dst_input_port=8 max_buffer_ratio=1 buffer_over_90_fraction=0.0421195 buffer_full_fraction=0.0421195 max_full_streak=6 edge_capacity=0.222222 max_edge_load=0.181 max_edge_utilization=0.8145 total_traversals=6162 buffer_exploded=1 load_exceeded_capacity=0
Edge (34 -> 30) dst_input_port=8 max_buffer_ratio=1 buffer_over_90_fraction=0.0209339 buffer_full_fraction=0.0209339 max_full_streak=5 edge_capacity=0.222222 max_edge_load=0.181 max_edge_utilization=0.8145 total_traversals=6180 buffer_exploded=1 load_exceeded_capacity=0
Edge (34 -> 31) dst_input_port=8 max_buffer_ratio=1 buffer_over_90_fraction=0.0275723 buffer_full_fraction=0.0275723 max_full_streak=6 edge_capacity=0.222222 max_edge_load=0.182 max_edge_utilization=0.819 total_traversals=6177 buffer_exploded=1 load_exceeded_capacity=0
Edge (34 -> 32) dst_input_port=8 max_buffer_ratio=1 buffer_over_90_fraction=0.023879 buffer_full_fraction=0.023879 max_full_streak=6 edge_capacity=0.222222 max_edge_load=0.181 max_edge_utilization=0.8145 total_traversals=6166 buffer_exploded=1 load_exceeded_capacity=0
Edge (34 -> 33) dst_input_port=8 max_buffer_ratio=1 buffer_over_90_fraction=0.073208 buffer_full_fraction=0.073208 max_full_streak=5 edge_capacity=0.222222 max_edge_load=0.18 max_edge_utilization=0.81 total_traversals=6149 buffer_exploded=1 load_exceeded_capacity=0
Edge (34 -> 35) dst_input_port=9 max_buffer_ratio=1 buffer_over_90_fraction=0.037222 buffer_full_fraction=0.037222 max_full_streak=7 edge_capacity=0.222222 max_edge_load=0.18 max_edge_utilization=0.81 total_traversals=6156 buffer_exploded=1 load_exceeded_capacity=0
Edge (35 -> 17) dst_input_port=1 max_buffer_ratio=1 buffer_over_90_fraction=0.000473909 buffer_full_fraction=0.000473909 max_full_streak=2 edge_capacity=1 max_edge_load=0.278 max_edge_utilization=0.278 total_traversals=9260 buffer_exploded=1 load_exceeded_capacity=0
Edge (35 -> 26) dst_input_port=1 max_buffer_ratio=1 buffer_over_90_fraction=0.00114183 buffer_full_fraction=0.00114183 max_full_streak=1 edge_capacity=1 max_edge_load=0.27 max_edge_utilization=0.27 total_traversals=9231 buffer_exploded=1 load_exceeded_capacity=0
Edge (35 -> 27) dst_input_port=9 max_buffer_ratio=1 buffer_over_90_fraction=0.0317983 buffer_full_fraction=0.0317983 max_full_streak=5 edge_capacity=0.222222 max_edge_load=0.183 max_edge_utilization=0.8235 total_traversals=6148 buffer_exploded=1 load_exceeded_capacity=0
Edge (35 -> 28) dst_input_port=9 max_buffer_ratio=1 buffer_over_90_fraction=0.0546994 buffer_full_fraction=0.0546994 max_full_streak=7 edge_capacity=0.222222 max_edge_load=0.181 max_edge_utilization=0.8145 total_traversals=6150 buffer_exploded=1 load_exceeded_capacity=0
Edge (35 -> 29) dst_input_port=9 max_buffer_ratio=1 buffer_over_90_fraction=0.0102402 buffer_full_fraction=0.0102402 max_full_streak=8 edge_capacity=0.222222 max_edge_load=0.183 max_edge_utilization=0.8235 total_traversals=6143 buffer_exploded=1 load_exceeded_capacity=0
Edge (35 -> 30) dst_input_port=9 max_buffer_ratio=1 buffer_over_90_fraction=0.0203931 buffer_full_fraction=0.0203931 max_full_streak=5 edge_capacity=0.222222 max_edge_load=0.181 max_edge_utilization=0.8145 total_traversals=6161 buffer_exploded=1 load_exceeded_capacity=0
Edge (35 -> 31) dst_input_port=9 max_buffer_ratio=1 buffer_over_90_fraction=0.0404118 buffer_full_fraction=0.0404118 max_full_streak=4 edge_capacity=0.222222 max_edge_load=0.182 max_edge_utilization=0.819 total_traversals=6157 buffer_exploded=1 load_exceeded_capacity=0
Edge (35 -> 32) dst_input_port=9 max_buffer_ratio=1 buffer_over_90_fraction=0.0528532 buffer_full_fraction=0.0528532 max_full_streak=6 edge_capacity=0.222222 max_edge_load=0.184 max_edge_utilization=0.828 total_traversals=6146 buffer_exploded=1 load_exceeded_capacity=0
Edge (35 -> 33) dst_input_port=9 max_buffer_ratio=1 buffer_over_90_fraction=0.033686 buffer_full_fraction=0.033686 max_full_streak=5 edge_capacity=0.222222 max_edge_load=0.181 max_edge_utilization=0.8145 total_traversals=6129 buffer_exploded=1 load_exceeded_capacity=0
Edge (35 -> 34) dst_input_port=9 max_buffer_ratio=1 buffer_over_90_fraction=0.0373041 buffer_full_fraction=0.0373041 max_full_streak=5 edge_capacity=0.222222 max_edge_load=0.182 max_edge_utilization=0.819 total_traversals=6142 buffer_exploded=1 load_exceeded_capacity=0
Observed edge count = 360
Observed edge max buffer ratio = 1
Observed edge max load = 0.278
Observed edge max utilization = 0.837
Observed edge avg over-0.9 buffer fraction = 0.0348135
Observed edge avg full-buffer fraction = 0.0348135
Observed edge max over-0.9 buffer fraction = 0.0755984
Observed edge max full-buffer fraction = 0.0755984
Observed edge worst full-buffer streak = 10
Observed edge exploded buffer count = 360
Observed edge exceeded capacity count = 0

