BEGIN Configuration File: D:\noc_huawei\noc\booksim2-noc_speedup_study\booksim2-noc_speedup_study\tests\data\results\dfm_n9_growth_scheduled_2overn_20260409\tmp_configs\dfm_dsl_s2204.config
num_vcs     = 24;
vc_buf_size = 16;
wait_for_tail_credit = 1;

vc_allocator = islip;
sw_allocator = islip;
alloc_iters  = 4;

credit_delay   = 2;
routing_delay  = 0;
vc_alloc_delay = 1;
sw_alloc_delay = 1;
st_final_delay = 1;

input_speedup     = 1;
output_speedup    = 1;
internal_speedup  = 1.0;

sim_type = latency;
latency_thres  = 100000.0;
sim_count      = 1;
queue_sample_period_cycles = 0;

topology = die_mesh_full;
dfm_tiles_per_die = 9;

dfm_hybrid_soft_threshold = 0.25;
dfm_hybrid_hard_threshold = 0.50;
dfm_hybrid_release_threshold = 0.18;
dfm_hybrid_congestion_alpha = 0.25;
dfm_hybrid_increase_step = 0.50;
dfm_hybrid_decrease_step = 0.06;
dfm_hybrid_capacity_guard_ratio = 0.98;
dfm_hybrid_rate_weight = 0.50;
dfm_hybrid_util_target = 0.98;
dfm_hybrid_util_gain = 0.60;
dfm_hybrid_epoch_cycles = 200;
dfm_hybrid_feedback_delay_per_hop = 1;

hybrid_edge_capacity = 1.0;
hybrid_stats_window_cycles = 1000;

packet_size = 1;
traffic = custom_perm;
custom_perm_array = {3,10,20,6,13,23,0,16,26,12,28,2,15,31,5,9,34,8,21,1,29,24,4,32,18,7,35,30,19,11,33,22,14,27,25,17};

injection_rate = 0.05;
dfm_hybrid_stats_window_cycles = 3000;
max_samples = 26;
scheduled_phase_cycles = {3000,3000,3000,3000,3000,3000,3000,3000,3000,3000,3000,3000,3000,3000,3000,3000,3000,3000};
sample_period = 3000;
routing_function = dfm_dsl;
warmup_periods = 2;
injection_process = scheduled;
scheduled_injection_rates = {0.05,0.1,0.15,0.2,0.25,0.3,0.35,0.4,0.45,0.5,0.55,0.6,0.65,0.7,0.75,0.8,0.8,0.8};
scheduled_default_phase_cycles = 3000;
perm_seed = 2204;
seed = 2204;

END Configuration File: D:\noc_huawei\noc\booksim2-noc_speedup_study\booksim2-noc_speedup_study\tests\data\results\dfm_n9_growth_scheduled_2overn_20260409\tmp_configs\dfm_dsl_s2204.config
Class 0:
Packet latency average = 15.8532
	minimum = 10
	maximum = 24
	95th percentile = 18.5
	99th percentile = 21.5
Network latency average = 15.8532
	minimum = 10
	maximum = 24
	95th percentile = 18.5
	99th percentile = 21.5
Slowest packet = 5213
Flit latency average = 15.8532
	minimum = 10
	maximum = 24
	95th percentile = 18.5
	99th percentile = 21.5
Slowest flit = 5213
Fragmentation average = 0
	minimum = 0
	maximum = 0
Injected packet rate average = 0.0504074
	minimum = 0.0423333 (at node 28)
	maximum = 0.0603333 (at node 27)
Accepted packet rate average = 0.0500926
	minimum = 0.0416667 (at node 19)
	maximum = 0.06 (at node 30)
Injected flit rate average = 0.0504074
	minimum = 0.0423333 (at node 28)
	maximum = 0.0603333 (at node 27)
Accepted flit rate average= 0.0500926
	minimum = 0.0416667 (at node 19)
	maximum = 0.06 (at node 30)
Injected packet length average = 1
Accepted packet length average = 1
Total in-flight flits = 34 (0 measured)
====== Peak Queue Occupancy Statistics (Absolute Max) ======
  Overall Max VC Occupancy = 1
  Overall Max Buffer Occupancy = 2
latency change    = 1
throughput change = 1
Class 0:
Packet latency average = 16.0009
	minimum = 10
	maximum = 25
	95th percentile = 19.5
	99th percentile = 22.5
Network latency average = 16.0009
	minimum = 10
	maximum = 25
	95th percentile = 19.5
	99th percentile = 22.5
Slowest packet = 7018
Flit latency average = 16.0009
	minimum = 10
	maximum = 25
	95th percentile = 19.5
	99th percentile = 22.5
Slowest flit = 7018
Fragmentation average = 0
	minimum = 0
	maximum = 0
Injected packet rate average = 0.074713
	minimum = 0.066 (at node 23)
	maximum = 0.0846667 (at node 4)
Accepted packet rate average = 0.0744491
	minimum = 0.0658333 (at node 32)
	maximum = 0.0843333 (at node 13)
Injected flit rate average = 0.074713
	minimum = 0.066 (at node 23)
	maximum = 0.0846667 (at node 4)
Accepted flit rate average= 0.0744491
	minimum = 0.0658333 (at node 32)
	maximum = 0.0843333 (at node 13)
Injected packet length average = 1
Accepted packet length average = 1
Total in-flight flits = 57 (0 measured)
====== Peak Queue Occupancy Statistics (Absolute Max) ======
  Overall Max VC Occupancy = 1
  Overall Max Buffer Occupancy = 2
latency change    = 0.00923059
throughput change = 0.327156
Warmed up ...Time used is 6000 cycles
Class 0:
Packet latency average = 16.2359
	minimum = 10
	maximum = 28
	95th percentile = 21.5
	99th percentile = 23.5
Network latency average = 16.2359
	minimum = 10
	maximum = 28
	95th percentile = 21.5
	99th percentile = 23.5
Slowest packet = 29068
Flit latency average = 16.2392
	minimum = 10
	maximum = 28
	95th percentile = 21.5
	99th percentile = 23.5
Slowest flit = 29068
Fragmentation average = 0
	minimum = 0
	maximum = 0
Injected packet rate average = 0.151065
	minimum = 0.137333 (at node 33)
	maximum = 0.167667 (at node 27)
Accepted packet rate average = 0.150787
	minimum = 0.136667 (at node 27)
	maximum = 0.167333 (at node 30)
Injected flit rate average = 0.151065
	minimum = 0.137333 (at node 33)
	maximum = 0.167667 (at node 27)
Accepted flit rate average= 0.150787
	minimum = 0.136667 (at node 27)
	maximum = 0.167333 (at node 30)
Injected packet length average = 1
Accepted packet length average = 1
Total in-flight flits = 87 (87 measured)
====== Peak Queue Occupancy Statistics (Absolute Max) ======
  Overall Max VC Occupancy = 1
  Overall Max Buffer Occupancy = 3
latency change    = 0.0144714
throughput change = 0.506263
Class 0:
Packet latency average = 16.329
	minimum = 10
	maximum = 28
	95th percentile = 21.5
	99th percentile = 23.5
Network latency average = 16.329
	minimum = 10
	maximum = 28
	95th percentile = 21.5
	99th percentile = 23.5
Slowest packet = 29068
Flit latency average = 16.3303
	minimum = 10
	maximum = 28
	95th percentile = 21.5
	99th percentile = 23.5
Slowest flit = 29068
Fragmentation average = 0
	minimum = 0
	maximum = 0
Injected packet rate average = 0.175819
	minimum = 0.166 (at node 33)
	maximum = 0.1905 (at node 27)
Accepted packet rate average = 0.175602
	minimum = 0.1655 (at node 27)
	maximum = 0.190667 (at node 30)
Injected flit rate average = 0.175819
	minimum = 0.166 (at node 33)
	maximum = 0.1905 (at node 27)
Accepted flit rate average= 0.175602
	minimum = 0.1655 (at node 27)
	maximum = 0.190667 (at node 30)
Injected packet length average = 1
Accepted packet length average = 1
Total in-flight flits = 104 (104 measured)
====== Peak Queue Occupancy Statistics (Absolute Max) ======
  Overall Max VC Occupancy = 1
  Overall Max Buffer Occupancy = 3
latency change    = 0.00570508
throughput change = 0.141313
Class 0:
Packet latency average = 16.4219
	minimum = 10
	maximum = 29
	95th percentile = 21.5
	99th percentile = 23.5
Network latency average = 16.4219
	minimum = 10
	maximum = 29
	95th percentile = 21.5
	99th percentile = 23.5
Slowest packet = 61388
Flit latency average = 16.4225
	minimum = 10
	maximum = 29
	95th percentile = 21.5
	99th percentile = 23.5
Slowest flit = 61388
Fragmentation average = 0
	minimum = 0
	maximum = 0
Injected packet rate average = 0.200167
	minimum = 0.193444 (at node 33)
	maximum = 0.211 (at node 27)
Accepted packet rate average = 0.199904
	minimum = 0.193 (at node 27)
	maximum = 0.211 (at node 30)
Injected flit rate average = 0.200167
	minimum = 0.193444 (at node 33)
	maximum = 0.211 (at node 27)
Accepted flit rate average= 0.199904
	minimum = 0.193 (at node 27)
	maximum = 0.211 (at node 30)
Injected packet length average = 1
Accepted packet length average = 1
Total in-flight flits = 142 (142 measured)
====== Peak Queue Occupancy Statistics (Absolute Max) ======
  Overall Max VC Occupancy = 1
  Overall Max Buffer Occupancy = 3
latency change    = 0.00565141
throughput change = 0.121571
Class 0:
Packet latency average = 16.5264
	minimum = 10
	maximum = 29
	95th percentile = 22.5
	99th percentile = 23.5
Network latency average = 16.5264
	minimum = 10
	maximum = 29
	95th percentile = 22.5
	99th percentile = 23.5
Slowest packet = 61388
Flit latency average = 16.5267
	minimum = 10
	maximum = 29
	95th percentile = 22.5
	99th percentile = 23.5
Slowest flit = 61388
Fragmentation average = 0
	minimum = 0
	maximum = 0
Injected packet rate average = 0.225535
	minimum = 0.21775 (at node 14)
	maximum = 0.234583 (at node 27)
Accepted packet rate average = 0.225262
	minimum = 0.217417 (at node 5)
	maximum = 0.234333 (at node 30)
Injected flit rate average = 0.225535
	minimum = 0.21775 (at node 14)
	maximum = 0.234583 (at node 27)
Accepted flit rate average= 0.225262
	minimum = 0.217417 (at node 5)
	maximum = 0.234333 (at node 30)
Injected packet length average = 1
Accepted packet length average = 1
Total in-flight flits = 175 (175 measured)
====== Peak Queue Occupancy Statistics (Absolute Max) ======
  Overall Max VC Occupancy = 1
  Overall Max Buffer Occupancy = 3
latency change    = 0.0063232
throughput change = 0.112568
Class 0:
Packet latency average = 16.6325
	minimum = 10
	maximum = 30
	95th percentile = 22.5
	99th percentile = 23.5
Network latency average = 16.6325
	minimum = 10
	maximum = 30
	95th percentile = 22.5
	99th percentile = 23.5
Slowest packet = 136812
Flit latency average = 16.6327
	minimum = 10
	maximum = 30
	95th percentile = 22.5
	99th percentile = 23.5
Slowest flit = 136812
Fragmentation average = 0
	minimum = 0
	maximum = 0
Injected packet rate average = 0.250107
	minimum = 0.239867 (at node 14)
	maximum = 0.258533 (at node 10)
Accepted packet rate average = 0.249826
	minimum = 0.239533 (at node 5)
	maximum = 0.258267 (at node 28)
Injected flit rate average = 0.250107
	minimum = 0.239867 (at node 14)
	maximum = 0.258533 (at node 10)
Accepted flit rate average= 0.249826
	minimum = 0.239533 (at node 5)
	maximum = 0.258267 (at node 28)
Injected packet length average = 1
Accepted packet length average = 1
Total in-flight flits = 209 (209 measured)
====== Peak Queue Occupancy Statistics (Absolute Max) ======
  Overall Max VC Occupancy = 1
  Overall Max Buffer Occupancy = 3
latency change    = 0.0063819
throughput change = 0.0983259
Class 0:
Packet latency average = 16.7399
	minimum = 10
	maximum = 31
	95th percentile = 22.5
	99th percentile = 24.5
Network latency average = 16.7399
	minimum = 10
	maximum = 31
	95th percentile = 22.5
	99th percentile = 24.5
Slowest packet = 164651
Flit latency average = 16.7401
	minimum = 10
	maximum = 31
	95th percentile = 22.5
	99th percentile = 24.5
Slowest flit = 164651
Fragmentation average = 0
	minimum = 0
	maximum = 0
Injected packet rate average = 0.275199
	minimum = 0.267222 (at node 14)
	maximum = 0.281833 (at node 3)
Accepted packet rate average = 0.274898
	minimum = 0.266889 (at node 5)
	maximum = 0.281667 (at node 6)
Injected flit rate average = 0.275199
	minimum = 0.267222 (at node 14)
	maximum = 0.281833 (at node 3)
Accepted flit rate average= 0.274898
	minimum = 0.266889 (at node 5)
	maximum = 0.281667 (at node 6)
Injected packet length average = 1
Accepted packet length average = 1
Total in-flight flits = 252 (252 measured)
====== Peak Queue Occupancy Statistics (Absolute Max) ======
  Overall Max VC Occupancy = 1
  Overall Max Buffer Occupancy = 3
latency change    = 0.00641808
throughput change = 0.0912055
Class 0:
Packet latency average = 16.8443
	minimum = 10
	maximum = 31
	95th percentile = 22.5
	99th percentile = 24.5
Network latency average = 16.8443
	minimum = 10
	maximum = 31
	95th percentile = 22.5
	99th percentile = 24.5
Slowest packet = 164651
Flit latency average = 16.8444
	minimum = 10
	maximum = 31
	95th percentile = 22.5
	99th percentile = 24.5
Slowest flit = 164651
Fragmentation average = 0
	minimum = 0
	maximum = 0
Injected packet rate average = 0.300385
	minimum = 0.293 (at node 14)
	maximum = 0.306 (at node 3)
Accepted packet rate average = 0.300077
	minimum = 0.292381 (at node 5)
	maximum = 0.305667 (at node 6)
Injected flit rate average = 0.300385
	minimum = 0.293 (at node 14)
	maximum = 0.306 (at node 3)
Accepted flit rate average= 0.300077
	minimum = 0.292381 (at node 5)
	maximum = 0.305667 (at node 6)
Injected packet length average = 1
Accepted packet length average = 1
Total in-flight flits = 290 (290 measured)
====== Peak Queue Occupancy Statistics (Absolute Max) ======
  Overall Max VC Occupancy = 1
  Overall Max Buffer Occupancy = 3
latency change    = 0.00619747
throughput change = 0.0839071
Class 0:
Packet latency average = 16.9538
	minimum = 10
	maximum = 32
	95th percentile = 22.5
	99th percentile = 25.5
Network latency average = 16.9538
	minimum = 10
	maximum = 32
	95th percentile = 22.5
	99th percentile = 25.5
Slowest packet = 264472
Flit latency average = 16.9538
	minimum = 10
	maximum = 32
	95th percentile = 22.5
	99th percentile = 25.5
Slowest flit = 264472
Fragmentation average = 0
	minimum = 0
	maximum = 0
Injected packet rate average = 0.325487
	minimum = 0.3195 (at node 2)
	maximum = 0.331083 (at node 3)
Accepted packet rate average = 0.325181
	minimum = 0.319042 (at node 20)
	maximum = 0.330792 (at node 6)
Injected flit rate average = 0.325487
	minimum = 0.3195 (at node 2)
	maximum = 0.331083 (at node 3)
Accepted flit rate average= 0.325181
	minimum = 0.319042 (at node 20)
	maximum = 0.330792 (at node 6)
Injected packet length average = 1
Accepted packet length average = 1
Total in-flight flits = 322 (322 measured)
====== Peak Queue Occupancy Statistics (Absolute Max) ======
  Overall Max VC Occupancy = 1
  Overall Max Buffer Occupancy = 4
latency change    = 0.00645412
throughput change = 0.0771997
Class 0:
Packet latency average = 17.0699
	minimum = 10
	maximum = 34
	95th percentile = 23.5
	99th percentile = 25.5
Network latency average = 17.0699
	minimum = 10
	maximum = 34
	95th percentile = 23.5
	99th percentile = 25.5
Slowest packet = 300828
Flit latency average = 17.0699
	minimum = 10
	maximum = 34
	95th percentile = 23.5
	99th percentile = 25.5
Slowest flit = 300828
Fragmentation average = 0
	minimum = 0
	maximum = 0
Injected packet rate average = 0.350787
	minimum = 0.345037 (at node 1)
	maximum = 0.355926 (at node 18)
Accepted packet rate average = 0.350492
	minimum = 0.344815 (at node 10)
	maximum = 0.355593 (at node 21)
Injected flit rate average = 0.350787
	minimum = 0.345037 (at node 1)
	maximum = 0.355926 (at node 18)
Accepted flit rate average= 0.350492
	minimum = 0.344815 (at node 10)
	maximum = 0.355593 (at node 21)
Injected packet length average = 1
Accepted packet length average = 1
Total in-flight flits = 344 (344 measured)
====== Peak Queue Occupancy Statistics (Absolute Max) ======
  Overall Max VC Occupancy = 1
  Overall Max Buffer Occupancy = 4
latency change    = 0.00680145
throughput change = 0.0722163
Class 0:
Packet latency average = 17.1903
	minimum = 10
	maximum = 34
	95th percentile = 23.5
	99th percentile = 25.5
Network latency average = 17.1903
	minimum = 10
	maximum = 34
	95th percentile = 23.5
	99th percentile = 25.5
Slowest packet = 300828
Flit latency average = 17.1903
	minimum = 10
	maximum = 34
	95th percentile = 23.5
	99th percentile = 25.5
Slowest flit = 300828
Fragmentation average = 0
	minimum = 0
	maximum = 0
Injected packet rate average = 0.37563
	minimum = 0.369967 (at node 1)
	maximum = 0.382267 (at node 27)
Accepted packet rate average = 0.375332
	minimum = 0.369733 (at node 10)
	maximum = 0.382 (at node 30)
Injected flit rate average = 0.37563
	minimum = 0.369967 (at node 1)
	maximum = 0.382267 (at node 27)
Accepted flit rate average= 0.375332
	minimum = 0.369733 (at node 10)
	maximum = 0.382 (at node 30)
Injected packet length average = 1
Accepted packet length average = 1
Total in-flight flits = 378 (378 measured)
====== Peak Queue Occupancy Statistics (Absolute Max) ======
  Overall Max VC Occupancy = 1
  Overall Max Buffer Occupancy = 4
latency change    = 0.00700604
throughput change = 0.066183
Class 0:
Packet latency average = 17.3249
	minimum = 10
	maximum = 34
	95th percentile = 23.5
	99th percentile = 25.5
Network latency average = 17.3249
	minimum = 10
	maximum = 34
	95th percentile = 23.5
	99th percentile = 25.5
Slowest packet = 300828
Flit latency average = 17.3249
	minimum = 10
	maximum = 34
	95th percentile = 23.5
	99th percentile = 25.5
Slowest flit = 300828
Fragmentation average = 0
	minimum = 0
	maximum = 0
Injected packet rate average = 0.400607
	minimum = 0.395212 (at node 1)
	maximum = 0.407091 (at node 27)
Accepted packet rate average = 0.400312
	minimum = 0.394848 (at node 10)
	maximum = 0.406879 (at node 30)
Injected flit rate average = 0.400607
	minimum = 0.395212 (at node 1)
	maximum = 0.407091 (at node 27)
Accepted flit rate average= 0.400312
	minimum = 0.394848 (at node 10)
	maximum = 0.406879 (at node 30)
Injected packet length average = 1
Accepted packet length average = 1
Total in-flight flits = 407 (407 measured)
====== Peak Queue Occupancy Statistics (Absolute Max) ======
  Overall Max VC Occupancy = 1
  Overall Max Buffer Occupancy = 4
latency change    = 0.00777246
throughput change = 0.062401
Class 0:
Packet latency average = 17.4794
	minimum = 10
	maximum = 39
	95th percentile = 23.5
	99th percentile = 26.5
Network latency average = 17.4794
	minimum = 10
	maximum = 39
	95th percentile = 23.5
	99th percentile = 26.5
Slowest packet = 513904
Flit latency average = 17.4794
	minimum = 10
	maximum = 39
	95th percentile = 23.5
	99th percentile = 26.5
Slowest flit = 513904
Fragmentation average = 0
	minimum = 0
	maximum = 0
Injected packet rate average = 0.425647
	minimum = 0.420028 (at node 1)
	maximum = 0.431861 (at node 27)
Accepted packet rate average = 0.425336
	minimum = 0.419722 (at node 10)
	maximum = 0.431611 (at node 30)
Injected flit rate average = 0.425647
	minimum = 0.420028 (at node 1)
	maximum = 0.431861 (at node 27)
Accepted flit rate average= 0.425336
	minimum = 0.419722 (at node 10)
	maximum = 0.431611 (at node 30)
Injected packet length average = 1
Accepted packet length average = 1
Total in-flight flits = 459 (459 measured)
====== Peak Queue Occupancy Statistics (Absolute Max) ======
  Overall Max VC Occupancy = 1
  Overall Max Buffer Occupancy = 4
latency change    = 0.00883668
throughput change = 0.0588337
Class 0:
Packet latency average = 17.6385
	minimum = 10
	maximum = 39
	95th percentile = 23.5
	99th percentile = 26.5
Network latency average = 17.6385
	minimum = 10
	maximum = 39
	95th percentile = 23.5
	99th percentile = 26.5
Slowest packet = 513904
Flit latency average = 17.6384
	minimum = 10
	maximum = 39
	95th percentile = 23.5
	99th percentile = 26.5
Slowest flit = 513904
Fragmentation average = 0
	minimum = 0
	maximum = 0
Injected packet rate average = 0.450526
	minimum = 0.445308 (at node 1)
	maximum = 0.455949 (at node 18)
Accepted packet rate average = 0.450202
	minimum = 0.445051 (at node 10)
	maximum = 0.45559 (at node 21)
Injected flit rate average = 0.450526
	minimum = 0.445308 (at node 1)
	maximum = 0.455949 (at node 18)
Accepted flit rate average= 0.450202
	minimum = 0.445051 (at node 10)
	maximum = 0.45559 (at node 21)
Injected packet length average = 1
Accepted packet length average = 1
Total in-flight flits = 512 (512 measured)
====== Peak Queue Occupancy Statistics (Absolute Max) ======
  Overall Max VC Occupancy = 1
  Overall Max Buffer Occupancy = 4
latency change    = 0.00901902
throughput change = 0.0552326
Class 0:
Packet latency average = 17.8018
	minimum = 10
	maximum = 43
	95th percentile = 24.5
	99th percentile = 27.5
Network latency average = 17.8018
	minimum = 10
	maximum = 43
	95th percentile = 24.5
	99th percentile = 27.5
Slowest packet = 675063
Flit latency average = 17.8017
	minimum = 10
	maximum = 43
	95th percentile = 24.5
	99th percentile = 27.5
Slowest flit = 675063
Fragmentation average = 0
	minimum = 0
	maximum = 0
Injected packet rate average = 0.475496
	minimum = 0.470357 (at node 4)
	maximum = 0.480976 (at node 18)
Accepted packet rate average = 0.475155
	minimum = 0.469976 (at node 13)
	maximum = 0.480619 (at node 21)
Injected flit rate average = 0.475496
	minimum = 0.470357 (at node 4)
	maximum = 0.480976 (at node 18)
Accepted flit rate average= 0.475155
	minimum = 0.469976 (at node 13)
	maximum = 0.480619 (at node 21)
Injected packet length average = 1
Accepted packet length average = 1
Total in-flight flits = 572 (572 measured)
====== Peak Queue Occupancy Statistics (Absolute Max) ======
  Overall Max VC Occupancy = 1
  Overall Max Buffer Occupancy = 4
latency change    = 0.00917284
throughput change = 0.0525158
Class 0:
Packet latency average = 17.9309
	minimum = 10
	maximum = 43
	95th percentile = 24.5
	99th percentile = 27.5
Network latency average = 17.9309
	minimum = 10
	maximum = 43
	95th percentile = 24.5
	99th percentile = 27.5
Slowest packet = 675063
Flit latency average = 17.9309
	minimum = 10
	maximum = 43
	95th percentile = 24.5
	99th percentile = 27.5
Slowest flit = 675063
Fragmentation average = 0
	minimum = 0
	maximum = 0
Injected packet rate average = 0.497081
	minimum = 0.491644 (at node 4)
	maximum = 0.501822 (at node 18)
Accepted packet rate average = 0.496777
	minimum = 0.491333 (at node 13)
	maximum = 0.501578 (at node 21)
Injected flit rate average = 0.497081
	minimum = 0.491644 (at node 4)
	maximum = 0.501822 (at node 18)
Accepted flit rate average= 0.496777
	minimum = 0.491333 (at node 13)
	maximum = 0.501578 (at node 21)
Injected packet length average = 1
Accepted packet length average = 1
Total in-flight flits = 551 (551 measured)
====== Peak Queue Occupancy Statistics (Absolute Max) ======
  Overall Max VC Occupancy = 1
  Overall Max Buffer Occupancy = 4
latency change    = 0.00720327
throughput change = 0.0435228
Class 0:
Packet latency average = 18.0394
	minimum = 10
	maximum = 44
	95th percentile = 24.5
	99th percentile = 27.5
Network latency average = 18.0394
	minimum = 10
	maximum = 44
	95th percentile = 24.5
	99th percentile = 27.5
Slowest packet = 848836
Flit latency average = 18.0393
	minimum = 10
	maximum = 44
	95th percentile = 24.5
	99th percentile = 27.5
Slowest flit = 848836
Fragmentation average = 0
	minimum = 0
	maximum = 0
Injected packet rate average = 0.516167
	minimum = 0.512062 (at node 1)
	maximum = 0.520646 (at node 18)
Accepted packet rate average = 0.515883
	minimum = 0.51175 (at node 10)
	maximum = 0.520354 (at node 21)
Injected flit rate average = 0.516167
	minimum = 0.512062 (at node 1)
	maximum = 0.520646 (at node 18)
Accepted flit rate average= 0.515883
	minimum = 0.51175 (at node 10)
	maximum = 0.520354 (at node 21)
Injected packet length average = 1
Accepted packet length average = 1
Total in-flight flits = 547 (547 measured)
====== Peak Queue Occupancy Statistics (Absolute Max) ======
  Overall Max VC Occupancy = 1
  Overall Max Buffer Occupancy = 4
latency change    = 0.00601129
throughput change = 0.0370366
Class 0:
Packet latency average = 18.1283
	minimum = 10
	maximum = 47
	95th percentile = 24.5
	99th percentile = 27.5
Network latency average = 18.1283
	minimum = 10
	maximum = 47
	95th percentile = 24.5
	99th percentile = 27.5
Slowest packet = 910580
Flit latency average = 18.1282
	minimum = 10
	maximum = 47
	95th percentile = 24.5
	99th percentile = 27.5
Slowest flit = 910580
Fragmentation average = 0
	minimum = 0
	maximum = 0
Injected packet rate average = 0.532958
	minimum = 0.528765 (at node 4)
	maximum = 0.537098 (at node 18)
Accepted packet rate average = 0.532685
	minimum = 0.528471 (at node 13)
	maximum = 0.536804 (at node 21)
Injected flit rate average = 0.532958
	minimum = 0.528765 (at node 4)
	maximum = 0.537098 (at node 18)
Accepted flit rate average= 0.532685
	minimum = 0.528471 (at node 13)
	maximum = 0.536804 (at node 21)
Injected packet length average = 1
Accepted packet length average = 1
Total in-flight flits = 557 (557 measured)
====== Peak Queue Occupancy Statistics (Absolute Max) ======
  Overall Max VC Occupancy = 1
  Overall Max Buffer Occupancy = 4
latency change    = 0.00490422
throughput change = 0.0315422
Draining all recorded packets ...
Draining remaining packets ...
Time taken is 57055 cycles
====== Overall Traffic Statistics ======
====== Traffic class 0 ======
Packet latency average = 18.1294 (1 samples)
	minimum = 10 (1 samples)
	maximum = 47 (1 samples)
Network latency average = 18.1294 (1 samples)
	minimum = 10 (1 samples)
	maximum = 47 (1 samples)
Flit latency average = 18.1299 (1 samples)
	minimum = 10 (1 samples)
	maximum = 47 (1 samples)
Fragmentation average = 0 (1 samples)
	minimum = 0 (1 samples)
	maximum = 0 (1 samples)
Injected packet rate average = 0.532958 (1 samples)
	minimum = 0.528765 (1 samples)
	maximum = 0.537098 (1 samples)
Accepted packet rate average = 0.532685 (1 samples)
	minimum = 0.528471 (1 samples)
	maximum = 0.536804 (1 samples)
Injected flit rate average = 0.532958 (1 samples)
	minimum = 0.528765 (1 samples)
	maximum = 0.537098 (1 samples)
Accepted flit rate average = 0.532685 (1 samples)
	minimum = 0.528471 (1 samples)
	maximum = 0.536804 (1 samples)
Injected packet size average = 1 (1 samples)
Accepted packet size average = 1 (1 samples)
Hops average = 3.44425 (1 samples)
Total run time 26.7156
====== Observed Edge Statistics ======
edge_capacity = 1
Edge (0 -> 1) dst_input_port=2 max_buffer_ratio=1 buffer_over_90_fraction=0.040141 buffer_full_fraction=0.040141 max_full_streak=7 edge_capacity=0.222222 max_edge_load=0.182 max_edge_utilization=0.819 total_traversals=6139 buffer_exploded=1 load_exceeded_capacity=0
Edge (0 -> 2) dst_input_port=2 max_buffer_ratio=1 buffer_over_90_fraction=0.0542787 buffer_full_fraction=0.0542787 max_full_streak=6 edge_capacity=0.222222 max_edge_load=0.181 max_edge_utilization=0.8145 total_traversals=6129 buffer_exploded=1 load_exceeded_capacity=0
Edge (0 -> 3) dst_input_port=2 max_buffer_ratio=1 buffer_over_90_fraction=0.0180055 buffer_full_fraction=0.0180055 max_full_streak=5 edge_capacity=0.222222 max_edge_load=0.181 max_edge_utilization=0.8145 total_traversals=6116 buffer_exploded=1 load_exceeded_capacity=0
Edge (0 -> 4) dst_input_port=2 max_buffer_ratio=1 buffer_over_90_fraction=0.036164 buffer_full_fraction=0.036164 max_full_streak=6 edge_capacity=0.222222 max_edge_load=0.182 max_edge_utilization=0.819 total_traversals=6145 buffer_exploded=1 load_exceeded_capacity=0
Edge (0 -> 5) dst_input_port=2 max_buffer_ratio=1 buffer_over_90_fraction=0.0248072 buffer_full_fraction=0.0248072 max_full_streak=5 edge_capacity=0.222222 max_edge_load=0.18 max_edge_utilization=0.81 total_traversals=6118 buffer_exploded=1 load_exceeded_capacity=0
Edge (0 -> 6) dst_input_port=2 max_buffer_ratio=1 buffer_over_90_fraction=0.0299328 buffer_full_fraction=0.0299328 max_full_streak=6 edge_capacity=0.222222 max_edge_load=0.18 max_edge_utilization=0.81 total_traversals=6135 buffer_exploded=1 load_exceeded_capacity=0
Edge (0 -> 7) dst_input_port=2 max_buffer_ratio=1 buffer_over_90_fraction=0.0421646 buffer_full_fraction=0.0421646 max_full_streak=6 edge_capacity=0.222222 max_edge_load=0.18 max_edge_utilization=0.81 total_traversals=6136 buffer_exploded=1 load_exceeded_capacity=0
Edge (0 -> 8) dst_input_port=2 max_buffer_ratio=1 buffer_over_90_fraction=0.051641 buffer_full_fraction=0.051641 max_full_streak=6 edge_capacity=0.222222 max_edge_load=0.181 max_edge_utilization=0.8145 total_traversals=6130 buffer_exploded=1 load_exceeded_capacity=0
Edge (0 -> 9) dst_input_port=0 max_buffer_ratio=1 buffer_over_90_fraction=0.00203348 buffer_full_fraction=0.00203348 max_full_streak=1 edge_capacity=1 max_edge_load=0.27 max_edge_utilization=0.27 total_traversals=9176 buffer_exploded=1 load_exceeded_capacity=0
Edge (0 -> 18) dst_input_port=0 max_buffer_ratio=1 buffer_over_90_fraction=0.000122719 buffer_full_fraction=0.000122719 max_full_streak=1 edge_capacity=1 max_edge_load=0.27 max_edge_utilization=0.27 total_traversals=9209 buffer_exploded=1 load_exceeded_capacity=0
Edge (1 -> 0) dst_input_port=2 max_buffer_ratio=1 buffer_over_90_fraction=0.0263984 buffer_full_fraction=0.0263984 max_full_streak=6 edge_capacity=0.222222 max_edge_load=0.181 max_edge_utilization=0.8145 total_traversals=6132 buffer_exploded=1 load_exceeded_capacity=0
Edge (1 -> 2) dst_input_port=3 max_buffer_ratio=1 buffer_over_90_fraction=0.0397257 buffer_full_fraction=0.0397257 max_full_streak=6 edge_capacity=0.222222 max_edge_load=0.179 max_edge_utilization=0.8055 total_traversals=6123 buffer_exploded=1 load_exceeded_capacity=0
Edge (1 -> 3) dst_input_port=3 max_buffer_ratio=1 buffer_over_90_fraction=0.0550684 buffer_full_fraction=0.0550684 max_full_streak=6 edge_capacity=0.222222 max_edge_load=0.182 max_edge_utilization=0.819 total_traversals=6108 buffer_exploded=1 load_exceeded_capacity=0
Edge (1 -> 4) dst_input_port=3 max_buffer_ratio=1 buffer_over_90_fraction=0.0143481 buffer_full_fraction=0.0143481 max_full_streak=5 edge_capacity=0.222222 max_edge_load=0.181 max_edge_utilization=0.8145 total_traversals=6138 buffer_exploded=1 load_exceeded_capacity=0
Edge (1 -> 5) dst_input_port=3 max_buffer_ratio=1 buffer_over_90_fraction=0.0375708 buffer_full_fraction=0.0375708 max_full_streak=5 edge_capacity=0.222222 max_edge_load=0.182 max_edge_utilization=0.819 total_traversals=6111 buffer_exploded=1 load_exceeded_capacity=0
Edge (1 -> 6) dst_input_port=3 max_buffer_ratio=1 buffer_over_90_fraction=0.0491115 buffer_full_fraction=0.0491115 max_full_streak=5 edge_capacity=0.222222 max_edge_load=0.18 max_edge_utilization=0.81 total_traversals=6128 buffer_exploded=1 load_exceeded_capacity=0
Edge (1 -> 7) dst_input_port=3 max_buffer_ratio=1 buffer_over_90_fraction=0.0579245 buffer_full_fraction=0.0579245 max_full_streak=5 edge_capacity=0.222222 max_edge_load=0.182 max_edge_utilization=0.819 total_traversals=6129 buffer_exploded=1 load_exceeded_capacity=0
Edge (1 -> 8) dst_input_port=3 max_buffer_ratio=1 buffer_over_90_fraction=0.0462917 buffer_full_fraction=0.0462917 max_full_streak=5 edge_capacity=0.222222 max_edge_load=0.181 max_edge_utilization=0.8145 total_traversals=6123 buffer_exploded=1 load_exceeded_capacity=0
Edge (1 -> 10) dst_input_port=0 max_buffer_ratio=1 buffer_over_90_fraction=0.00128021 buffer_full_fraction=0.00128021 max_full_streak=2 edge_capacity=1 max_edge_load=0.27 max_edge_utilization=0.27 total_traversals=9175 buffer_exploded=1 load_exceeded_capacity=0
Edge (1 -> 19) dst_input_port=0 max_buffer_ratio=1 buffer_over_90_fraction=0.000543574 buffer_full_fraction=0.000543574 max_full_streak=1 edge_capacity=1 max_edge_load=0.271 max_edge_utilization=0.271 total_traversals=9209 buffer_exploded=1 load_exceeded_capacity=0
Edge (2 -> 0) dst_input_port=3 max_buffer_ratio=1 buffer_over_90_fraction=0.0537659 buffer_full_fraction=0.0537659 max_full_streak=6 edge_capacity=0.222222 max_edge_load=0.182 max_edge_utilization=0.819 total_traversals=6144 buffer_exploded=1 load_exceeded_capacity=0
Edge (2 -> 1) dst_input_port=3 max_buffer_ratio=1 buffer_over_90_fraction=0.0398765 buffer_full_fraction=0.0398765 max_full_streak=6 edge_capacity=0.222222 max_edge_load=0.181 max_edge_utilization=0.8145 total_traversals=6145 buffer_exploded=1 load_exceeded_capacity=0
Edge (2 -> 3) dst_input_port=4 max_buffer_ratio=1 buffer_over_90_fraction=0.0683537 buffer_full_fraction=0.0683537 max_full_streak=6 edge_capacity=0.222222 max_edge_load=0.182 max_edge_utilization=0.819 total_traversals=6120 buffer_exploded=1 load_exceeded_capacity=0
Edge (2 -> 4) dst_input_port=4 max_buffer_ratio=1 buffer_over_90_fraction=0.0553206 buffer_full_fraction=0.0553206 max_full_streak=7 edge_capacity=0.222222 max_edge_load=0.183 max_edge_utilization=0.8235 total_traversals=6151 buffer_exploded=1 load_exceeded_capacity=0
Edge (2 -> 5) dst_input_port=4 max_buffer_ratio=1 buffer_over_90_fraction=0.0245006 buffer_full_fraction=0.0245006 max_full_streak=6 edge_capacity=0.222222 max_edge_load=0.181 max_edge_utilization=0.8145 total_traversals=6123 buffer_exploded=1 load_exceeded_capacity=0
Edge (2 -> 6) dst_input_port=4 max_buffer_ratio=1 buffer_over_90_fraction=0.0490063 buffer_full_fraction=0.0490063 max_full_streak=6 edge_capacity=0.222222 max_edge_load=0.181 max_edge_utilization=0.8145 total_traversals=6140 buffer_exploded=1 load_exceeded_capacity=0
Edge (2 -> 7) dst_input_port=4 max_buffer_ratio=1 buffer_over_90_fraction=0.0318533 buffer_full_fraction=0.0318533 max_full_streak=5 edge_capacity=0.222222 max_edge_load=0.182 max_edge_utilization=0.819 total_traversals=6140 buffer_exploded=1 load_exceeded_capacity=0
Edge (2 -> 8) dst_input_port=4 max_buffer_ratio=1 buffer_over_90_fraction=0.057369 buffer_full_fraction=0.057369 max_full_streak=6 edge_capacity=0.222222 max_edge_load=0.182 max_edge_utilization=0.819 total_traversals=6135 buffer_exploded=1 load_exceeded_capacity=0
Edge (2 -> 11) dst_input_port=0 max_buffer_ratio=1 buffer_over_90_fraction=0.00191235 buffer_full_fraction=0.00191235 max_full_streak=1 edge_capacity=1 max_edge_load=0.27 max_edge_utilization=0.27 total_traversals=9175 buffer_exploded=1 load_exceeded_capacity=0
Edge (2 -> 20) dst_input_port=0 max_buffer_ratio=1 buffer_over_90_fraction=0.0013678 buffer_full_fraction=0.0013678 max_full_streak=1 edge_capacity=1 max_edge_load=0.271 max_edge_utilization=0.271 total_traversals=9209 buffer_exploded=1 load_exceeded_capacity=0
Edge (3 -> 0) dst_input_port=4 max_buffer_ratio=1 buffer_over_90_fraction=0.0315335 buffer_full_fraction=0.0315335 max_full_streak=5 edge_capacity=0.222222 max_edge_load=0.18 max_edge_utilization=0.81 total_traversals=6159 buffer_exploded=1 load_exceeded_capacity=0
Edge (3 -> 1) dst_input_port=4 max_buffer_ratio=1 buffer_over_90_fraction=0.0254596 buffer_full_fraction=0.0254596 max_full_streak=5 edge_capacity=0.222222 max_edge_load=0.181 max_edge_utilization=0.8145 total_traversals=6160 buffer_exploded=1 load_exceeded_capacity=0
Edge (3 -> 2) dst_input_port=4 max_buffer_ratio=1 buffer_over_90_fraction=0.0435775 buffer_full_fraction=0.0435775 max_full_streak=7 edge_capacity=0.222222 max_edge_load=0.18 max_edge_utilization=0.81 total_traversals=6150 buffer_exploded=1 load_exceeded_capacity=0
Edge (3 -> 4) dst_input_port=5 max_buffer_ratio=1 buffer_over_90_fraction=0.0262881 buffer_full_fraction=0.0262881 max_full_streak=6 edge_capacity=0.222222 max_edge_load=0.182 max_edge_utilization=0.819 total_traversals=6165 buffer_exploded=1 load_exceeded_capacity=0
Edge (3 -> 5) dst_input_port=5 max_buffer_ratio=1 buffer_over_90_fraction=0.0368804 buffer_full_fraction=0.0368804 max_full_streak=6 edge_capacity=0.222222 max_edge_load=0.18 max_edge_utilization=0.81 total_traversals=6139 buffer_exploded=1 load_exceeded_capacity=0
Edge (3 -> 6) dst_input_port=5 max_buffer_ratio=1 buffer_over_90_fraction=0.029164 buffer_full_fraction=0.029164 max_full_streak=5 edge_capacity=0.222222 max_edge_load=0.18 max_edge_utilization=0.81 total_traversals=6156 buffer_exploded=1 load_exceeded_capacity=0
Edge (3 -> 7) dst_input_port=5 max_buffer_ratio=1 buffer_over_90_fraction=0.0387538 buffer_full_fraction=0.0387538 max_full_streak=5 edge_capacity=0.222222 max_edge_load=0.181 max_edge_utilization=0.8145 total_traversals=6155 buffer_exploded=1 load_exceeded_capacity=0
Edge (3 -> 8) dst_input_port=5 max_buffer_ratio=1 buffer_over_90_fraction=0.0651529 buffer_full_fraction=0.0651529 max_full_streak=6 edge_capacity=0.222222 max_edge_load=0.181 max_edge_utilization=0.8145 total_traversals=6150 buffer_exploded=1 load_exceeded_capacity=0
Edge (3 -> 12) dst_input_port=0 max_buffer_ratio=1 buffer_over_90_fraction=0.00159674 buffer_full_fraction=0.00159674 max_full_streak=1 edge_capacity=1 max_edge_load=0.27 max_edge_utilization=0.27 total_traversals=9174 buffer_exploded=1 load_exceeded_capacity=0
Edge (3 -> 21) dst_input_port=0 max_buffer_ratio=1 buffer_over_90_fraction=0.000140309 buffer_full_fraction=0.000140309 max_full_streak=1 edge_capacity=1 max_edge_load=0.27 max_edge_utilization=0.27 total_traversals=9209 buffer_exploded=1 load_exceeded_capacity=0
Edge (4 -> 0) dst_input_port=5 max_buffer_ratio=1 buffer_over_90_fraction=0.0330166 buffer_full_fraction=0.0330166 max_full_streak=5 edge_capacity=0.222222 max_edge_load=0.182 max_edge_utilization=0.819 total_traversals=6137 buffer_exploded=1 load_exceeded_capacity=0
Edge (4 -> 1) dst_input_port=5 max_buffer_ratio=1 buffer_over_90_fraction=0.0258654 buffer_full_fraction=0.0258654 max_full_streak=5 edge_capacity=0.222222 max_edge_load=0.181 max_edge_utilization=0.8145 total_traversals=6136 buffer_exploded=1 load_exceeded_capacity=0
Edge (4 -> 2) dst_input_port=5 max_buffer_ratio=1 buffer_over_90_fraction=0.049507 buffer_full_fraction=0.049507 max_full_streak=5 edge_capacity=0.222222 max_edge_load=0.181 max_edge_utilization=0.8145 total_traversals=6127 buffer_exploded=1 load_exceeded_capacity=0
Edge (4 -> 3) dst_input_port=5 max_buffer_ratio=1 buffer_over_90_fraction=0.0333889 buffer_full_fraction=0.0333889 max_full_streak=5 edge_capacity=0.222222 max_edge_load=0.181 max_edge_utilization=0.8145 total_traversals=6112 buffer_exploded=1 load_exceeded_capacity=0
Edge (4 -> 5) dst_input_port=6 max_buffer_ratio=1 buffer_over_90_fraction=0.0290628 buffer_full_fraction=0.0290628 max_full_streak=5 edge_capacity=0.222222 max_edge_load=0.181 max_edge_utilization=0.8145 total_traversals=6116 buffer_exploded=1 load_exceeded_capacity=0
Edge (4 -> 6) dst_input_port=6 max_buffer_ratio=1 buffer_over_90_fraction=0.0701046 buffer_full_fraction=0.0701046 max_full_streak=6 edge_capacity=0.222222 max_edge_load=0.18 max_edge_utilization=0.81 total_traversals=6133 buffer_exploded=1 load_exceeded_capacity=0
Edge (4 -> 7) dst_input_port=6 max_buffer_ratio=1 buffer_over_90_fraction=0.0404423 buffer_full_fraction=0.0404423 max_full_streak=6 edge_capacity=0.222222 max_edge_load=0.182 max_edge_utilization=0.819 total_traversals=6133 buffer_exploded=1 load_exceeded_capacity=0
Edge (4 -> 8) dst_input_port=6 max_buffer_ratio=1 buffer_over_90_fraction=0.043802 buffer_full_fraction=0.043802 max_full_streak=5 edge_capacity=0.222222 max_edge_load=0.181 max_edge_utilization=0.8145 total_traversals=6128 buffer_exploded=1 load_exceeded_capacity=0
Edge (4 -> 13) dst_input_port=0 max_buffer_ratio=1 buffer_over_90_fraction=0.00149159 buffer_full_fraction=0.00149159 max_full_streak=2 edge_capacity=1 max_edge_load=0.27 max_edge_utilization=0.27 total_traversals=9173 buffer_exploded=1 load_exceeded_capacity=0
Edge (4 -> 22) dst_input_port=0 max_buffer_ratio=1 buffer_over_90_fraction=0.00252596 buffer_full_fraction=0.00252596 max_full_streak=2 edge_capacity=1 max_edge_load=0.271 max_edge_utilization=0.271 total_traversals=9209 buffer_exploded=1 load_exceeded_capacity=0
Edge (5 -> 0) dst_input_port=6 max_buffer_ratio=1 buffer_over_90_fraction=0.0449093 buffer_full_fraction=0.0449093 max_full_streak=5 edge_capacity=0.222222 max_edge_load=0.18 max_edge_utilization=0.81 total_traversals=6135 buffer_exploded=1 load_exceeded_capacity=0
Edge (5 -> 1) dst_input_port=6 max_buffer_ratio=1 buffer_over_90_fraction=0.0180491 buffer_full_fraction=0.0180491 max_full_streak=5 edge_capacity=0.222222 max_edge_load=0.18 max_edge_utilization=0.81 total_traversals=6136 buffer_exploded=1 load_exceeded_capacity=0
Edge (5 -> 2) dst_input_port=6 max_buffer_ratio=1 buffer_over_90_fraction=0.0555292 buffer_full_fraction=0.0555292 max_full_streak=7 edge_capacity=0.222222 max_edge_load=0.18 max_edge_utilization=0.81 total_traversals=6127 buffer_exploded=1 load_exceeded_capacity=0
Edge (5 -> 3) dst_input_port=6 max_buffer_ratio=1 buffer_over_90_fraction=0.0441592 buffer_full_fraction=0.0441592 max_full_streak=5 edge_capacity=0.222222 max_edge_load=0.18 max_edge_utilization=0.81 total_traversals=6112 buffer_exploded=1 load_exceeded_capacity=0
Edge (5 -> 4) dst_input_port=6 max_buffer_ratio=1 buffer_over_90_fraction=0.0455312 buffer_full_fraction=0.0455312 max_full_streak=7 edge_capacity=0.222222 max_edge_load=0.181 max_edge_utilization=0.8145 total_traversals=6142 buffer_exploded=1 load_exceeded_capacity=0
Edge (5 -> 6) dst_input_port=7 max_buffer_ratio=1 buffer_over_90_fraction=0.0670989 buffer_full_fraction=0.0670989 max_full_streak=5 edge_capacity=0.222222 max_edge_load=0.179 max_edge_utilization=0.8055 total_traversals=6133 buffer_exploded=1 load_exceeded_capacity=0
Edge (5 -> 7) dst_input_port=7 max_buffer_ratio=1 buffer_over_90_fraction=0.0402543 buffer_full_fraction=0.0402543 max_full_streak=5 edge_capacity=0.222222 max_edge_load=0.182 max_edge_utilization=0.819 total_traversals=6133 buffer_exploded=1 load_exceeded_capacity=0
Edge (5 -> 8) dst_input_port=7 max_buffer_ratio=1 buffer_over_90_fraction=0.0573593 buffer_full_fraction=0.0573593 max_full_streak=4 edge_capacity=0.222222 max_edge_load=0.18 max_edge_utilization=0.81 total_traversals=6128 buffer_exploded=1 load_exceeded_capacity=0
Edge (5 -> 14) dst_input_port=0 max_buffer_ratio=1 buffer_over_90_fraction=0.000544089 buffer_full_fraction=0.000544089 max_full_streak=1 edge_capacity=1 max_edge_load=0.271 max_edge_utilization=0.271 total_traversals=9173 buffer_exploded=1 load_exceeded_capacity=0
Edge (5 -> 23) dst_input_port=0 max_buffer_ratio=1 buffer_over_90_fraction=0.000947452 buffer_full_fraction=0.000947452 max_full_streak=2 edge_capacity=1 max_edge_load=0.27 max_edge_utilization=0.27 total_traversals=9208 buffer_exploded=1 load_exceeded_capacity=0
Edge (6 -> 0) dst_input_port=7 max_buffer_ratio=1 buffer_over_90_fraction=0.0481191 buffer_full_fraction=0.0481191 max_full_streak=5 edge_capacity=0.222222 max_edge_load=0.184 max_edge_utilization=0.828 total_traversals=6162 buffer_exploded=1 load_exceeded_capacity=0
Edge (6 -> 1) dst_input_port=7 max_buffer_ratio=1 buffer_over_90_fraction=0.0391545 buffer_full_fraction=0.0391545 max_full_streak=4 edge_capacity=0.222222 max_edge_load=0.181 max_edge_utilization=0.8145 total_traversals=6162 buffer_exploded=1 load_exceeded_capacity=0
Edge (6 -> 2) dst_input_port=7 max_buffer_ratio=1 buffer_over_90_fraction=0.0373737 buffer_full_fraction=0.0373737 max_full_streak=7 edge_capacity=0.222222 max_edge_load=0.181 max_edge_utilization=0.8145 total_traversals=6153 buffer_exploded=1 load_exceeded_capacity=0
Edge (6 -> 3) dst_input_port=7 max_buffer_ratio=1 buffer_over_90_fraction=0.0330403 buffer_full_fraction=0.0330403 max_full_streak=5 edge_capacity=0.222222 max_edge_load=0.182 max_edge_utilization=0.819 total_traversals=6138 buffer_exploded=1 load_exceeded_capacity=0
Edge (6 -> 4) dst_input_port=7 max_buffer_ratio=1 buffer_over_90_fraction=0.0518721 buffer_full_fraction=0.0518721 max_full_streak=7 edge_capacity=0.222222 max_edge_load=0.182 max_edge_utilization=0.819 total_traversals=6168 buffer_exploded=1 load_exceeded_capacity=0
Edge (6 -> 5) dst_input_port=7 max_buffer_ratio=1 buffer_over_90_fraction=0.0200183 buffer_full_fraction=0.0200183 max_full_streak=6 edge_capacity=0.222222 max_edge_load=0.181 max_edge_utilization=0.8145 total_traversals=6141 buffer_exploded=1 load_exceeded_capacity=0
Edge (6 -> 7) dst_input_port=8 max_buffer_ratio=1 buffer_over_90_fraction=0.0390917 buffer_full_fraction=0.0390917 max_full_streak=6 edge_capacity=0.222222 max_edge_load=0.182 max_edge_utilization=0.819 total_traversals=6158 buffer_exploded=1 load_exceeded_capacity=0
Edge (6 -> 8) dst_input_port=8 max_buffer_ratio=1 buffer_over_90_fraction=0.0503355 buffer_full_fraction=0.0503355 max_full_streak=5 edge_capacity=0.222222 max_edge_load=0.182 max_edge_utilization=0.819 total_traversals=6153 buffer_exploded=1 load_exceeded_capacity=0
Edge (6 -> 15) dst_input_port=0 max_buffer_ratio=1 buffer_over_90_fraction=0.00177293 buffer_full_fraction=0.00177293 max_full_streak=1 edge_capacity=1 max_edge_load=0.27 max_edge_utilization=0.27 total_traversals=9173 buffer_exploded=1 load_exceeded_capacity=0
Edge (6 -> 24) dst_input_port=0 max_buffer_ratio=1 buffer_over_90_fraction=0.00193087 buffer_full_fraction=0.00193087 max_full_streak=2 edge_capacity=1 max_edge_load=0.27 max_edge_utilization=0.27 total_traversals=9207 buffer_exploded=1 load_exceeded_capacity=0
Edge (7 -> 0) dst_input_port=8 max_buffer_ratio=1 buffer_over_90_fraction=0.0489259 buffer_full_fraction=0.0489259 max_full_streak=5 edge_capacity=0.222222 max_edge_load=0.181 max_edge_utilization=0.8145 total_traversals=6149 buffer_exploded=1 load_exceeded_capacity=0
Edge (7 -> 1) dst_input_port=8 max_buffer_ratio=1 buffer_over_90_fraction=0.0449188 buffer_full_fraction=0.0449188 max_full_streak=4 edge_capacity=0.222222 max_edge_load=0.182 max_edge_utilization=0.819 total_traversals=6150 buffer_exploded=1 load_exceeded_capacity=0
Edge (7 -> 2) dst_input_port=8 max_buffer_ratio=1 buffer_over_90_fraction=0.063392 buffer_full_fraction=0.063392 max_full_streak=6 edge_capacity=0.222222 max_edge_load=0.181 max_edge_utilization=0.8145 total_traversals=6140 buffer_exploded=1 load_exceeded_capacity=0
Edge (7 -> 3) dst_input_port=8 max_buffer_ratio=1 buffer_over_90_fraction=0.052931 buffer_full_fraction=0.052931 max_full_streak=6 edge_capacity=0.222222 max_edge_load=0.181 max_edge_utilization=0.8145 total_traversals=6125 buffer_exploded=1 load_exceeded_capacity=0
Edge (7 -> 4) dst_input_port=8 max_buffer_ratio=1 buffer_over_90_fraction=0.0173719 buffer_full_fraction=0.0173719 max_full_streak=5 edge_capacity=0.222222 max_edge_load=0.181 max_edge_utilization=0.8145 total_traversals=6155 buffer_exploded=1 load_exceeded_capacity=0
Edge (7 -> 5) dst_input_port=8 max_buffer_ratio=1 buffer_over_90_fraction=0.0620848 buffer_full_fraction=0.0620848 max_full_streak=7 edge_capacity=0.222222 max_edge_load=0.181 max_edge_utilization=0.8145 total_traversals=6129 buffer_exploded=1 load_exceeded_capacity=0
Edge (7 -> 6) dst_input_port=8 max_buffer_ratio=1 buffer_over_90_fraction=0.0480193 buffer_full_fraction=0.0480193 max_full_streak=5 edge_capacity=0.222222 max_edge_load=0.182 max_edge_utilization=0.819 total_traversals=6145 buffer_exploded=1 load_exceeded_capacity=0
Edge (7 -> 8) dst_input_port=9 max_buffer_ratio=1 buffer_over_90_fraction=0.044815 buffer_full_fraction=0.044815 max_full_streak=5 edge_capacity=0.222222 max_edge_load=0.181 max_edge_utilization=0.8145 total_traversals=6141 buffer_exploded=1 load_exceeded_capacity=0
Edge (7 -> 16) dst_input_port=0 max_buffer_ratio=1 buffer_over_90_fraction=0.000438912 buffer_full_fraction=0.000438912 max_full_streak=1 edge_capacity=1 max_edge_load=0.27 max_edge_utilization=0.27 total_traversals=9173 buffer_exploded=1 load_exceeded_capacity=0
Edge (7 -> 25) dst_input_port=0 max_buffer_ratio=1 buffer_over_90_fraction=0.000509317 buffer_full_fraction=0.000509317 max_full_streak=1 edge_capacity=1 max_edge_load=0.271 max_edge_utilization=0.271 total_traversals=9207 buffer_exploded=1 load_exceeded_capacity=0
Edge (8 -> 0) dst_input_port=9 max_buffer_ratio=1 buffer_over_90_fraction=0.0544482 buffer_full_fraction=0.0544482 max_full_streak=6 edge_capacity=0.222222 max_edge_load=0.182 max_edge_utilization=0.819 total_traversals=6171 buffer_exploded=1 load_exceeded_capacity=0
Edge (8 -> 1) dst_input_port=9 max_buffer_ratio=1 buffer_over_90_fraction=0.0553354 buffer_full_fraction=0.0553354 max_full_streak=5 edge_capacity=0.222222 max_edge_load=0.182 max_edge_utilization=0.819 total_traversals=6172 buffer_exploded=1 load_exceeded_capacity=0
Edge (8 -> 2) dst_input_port=9 max_buffer_ratio=1 buffer_over_90_fraction=0.0352972 buffer_full_fraction=0.0352972 max_full_streak=5 edge_capacity=0.222222 max_edge_load=0.181 max_edge_utilization=0.8145 total_traversals=6162 buffer_exploded=1 load_exceeded_capacity=0
Edge (8 -> 3) dst_input_port=9 max_buffer_ratio=1 buffer_over_90_fraction=0.0368987 buffer_full_fraction=0.0368987 max_full_streak=6 edge_capacity=0.222222 max_edge_load=0.182 max_edge_utilization=0.819 total_traversals=6148 buffer_exploded=1 load_exceeded_capacity=0
Edge (8 -> 4) dst_input_port=9 max_buffer_ratio=1 buffer_over_90_fraction=0.0708447 buffer_full_fraction=0.0708447 max_full_streak=6 edge_capacity=0.222222 max_edge_load=0.183 max_edge_utilization=0.8235 total_traversals=6178 buffer_exploded=1 load_exceeded_capacity=0
Edge (8 -> 5) dst_input_port=9 max_buffer_ratio=1 buffer_over_90_fraction=0.0196319 buffer_full_fraction=0.0196319 max_full_streak=5 edge_capacity=0.222222 max_edge_load=0.181 max_edge_utilization=0.8145 total_traversals=6152 buffer_exploded=1 load_exceeded_capacity=0
Edge (8 -> 6) dst_input_port=9 max_buffer_ratio=1 buffer_over_90_fraction=0.0534464 buffer_full_fraction=0.0534464 max_full_streak=5 edge_capacity=0.222222 max_edge_load=0.181 max_edge_utilization=0.8145 total_traversals=6167 buffer_exploded=1 load_exceeded_capacity=0
Edge (8 -> 7) dst_input_port=9 max_buffer_ratio=1 buffer_over_90_fraction=0.0101154 buffer_full_fraction=0.0101154 max_full_streak=6 edge_capacity=0.222222 max_edge_load=0.181 max_edge_utilization=0.8145 total_traversals=6168 buffer_exploded=1 load_exceeded_capacity=0
Edge (8 -> 17) dst_input_port=0 max_buffer_ratio=1 buffer_over_90_fraction=0.000228383 buffer_full_fraction=0.000228383 max_full_streak=1 edge_capacity=1 max_edge_load=0.271 max_edge_utilization=0.271 total_traversals=9173 buffer_exploded=1 load_exceeded_capacity=0
Edge (8 -> 26) dst_input_port=0 max_buffer_ratio=1 buffer_over_90_fraction=0.00124693 buffer_full_fraction=0.00124693 max_full_streak=2 edge_capacity=1 max_edge_load=0.271 max_edge_utilization=0.271 total_traversals=9207 buffer_exploded=1 load_exceeded_capacity=0
Edge (9 -> 0) dst_input_port=0 max_buffer_ratio=1 buffer_over_90_fraction=0.000280485 buffer_full_fraction=0.000280485 max_full_streak=1 edge_capacity=1 max_edge_load=0.273 max_edge_utilization=0.273 total_traversals=9206 buffer_exploded=1 load_exceeded_capacity=0
Edge (9 -> 10) dst_input_port=2 max_buffer_ratio=1 buffer_over_90_fraction=0.0164794 buffer_full_fraction=0.0164794 max_full_streak=8 edge_capacity=0.222222 max_edge_load=0.18 max_edge_utilization=0.81 total_traversals=6125 buffer_exploded=1 load_exceeded_capacity=0
Edge (9 -> 11) dst_input_port=2 max_buffer_ratio=1 buffer_over_90_fraction=0.0522081 buffer_full_fraction=0.0522081 max_full_streak=6 edge_capacity=0.222222 max_edge_load=0.181 max_edge_utilization=0.8145 total_traversals=6155 buffer_exploded=1 load_exceeded_capacity=0
Edge (9 -> 12) dst_input_port=2 max_buffer_ratio=1 buffer_over_90_fraction=0.0220749 buffer_full_fraction=0.0220749 max_full_streak=5 edge_capacity=0.222222 max_edge_load=0.182 max_edge_utilization=0.819 total_traversals=6148 buffer_exploded=1 load_exceeded_capacity=0
Edge (9 -> 13) dst_input_port=2 max_buffer_ratio=1 buffer_over_90_fraction=0.0460157 buffer_full_fraction=0.0460157 max_full_streak=5 edge_capacity=0.222222 max_edge_load=0.181 max_edge_utilization=0.8145 total_traversals=6130 buffer_exploded=1 load_exceeded_capacity=0
Edge (9 -> 14) dst_input_port=2 max_buffer_ratio=1 buffer_over_90_fraction=0.0477301 buffer_full_fraction=0.0477301 max_full_streak=6 edge_capacity=0.222222 max_edge_load=0.18 max_edge_utilization=0.81 total_traversals=6153 buffer_exploded=1 load_exceeded_capacity=0
Edge (9 -> 15) dst_input_port=2 max_buffer_ratio=1 buffer_over_90_fraction=0.0390735 buffer_full_fraction=0.0390735 max_full_streak=6 edge_capacity=0.222222 max_edge_load=0.183 max_edge_utilization=0.8235 total_traversals=6160 buffer_exploded=1 load_exceeded_capacity=0
Edge (9 -> 16) dst_input_port=2 max_buffer_ratio=1 buffer_over_90_fraction=0.0225196 buffer_full_fraction=0.0225196 max_full_streak=5 edge_capacity=0.222222 max_edge_load=0.181 max_edge_utilization=0.8145 total_traversals=6142 buffer_exploded=1 load_exceeded_capacity=0
Edge (9 -> 17) dst_input_port=2 max_buffer_ratio=1 buffer_over_90_fraction=0.027446 buffer_full_fraction=0.027446 max_full_streak=6 edge_capacity=0.222222 max_edge_load=0.18 max_edge_utilization=0.81 total_traversals=6153 buffer_exploded=1 load_exceeded_capacity=0
Edge (9 -> 27) dst_input_port=0 max_buffer_ratio=1 buffer_over_90_fraction=0.000122725 buffer_full_fraction=0.000122725 max_full_streak=1 edge_capacity=1 max_edge_load=0.271 max_edge_utilization=0.271 total_traversals=9235 buffer_exploded=1 load_exceeded_capacity=0
Edge (10 -> 1) dst_input_port=0 max_buffer_ratio=1 buffer_over_90_fraction=0.000122714 buffer_full_fraction=0.000122714 max_full_streak=1 edge_capacity=1 max_edge_load=0.272 max_edge_utilization=0.272 total_traversals=9206 buffer_exploded=1 load_exceeded_capacity=0
Edge (10 -> 9) dst_input_port=2 max_buffer_ratio=1 buffer_over_90_fraction=0.0406893 buffer_full_fraction=0.0406893 max_full_streak=6 edge_capacity=0.222222 max_edge_load=0.18 max_edge_utilization=0.81 total_traversals=6152 buffer_exploded=1 load_exceeded_capacity=0
Edge (10 -> 11) dst_input_port=3 max_buffer_ratio=1 buffer_over_90_fraction=0.0387636 buffer_full_fraction=0.0387636 max_full_streak=6 edge_capacity=0.222222 max_edge_load=0.182 max_edge_utilization=0.819 total_traversals=6170 buffer_exploded=1 load_exceeded_capacity=0
Edge (10 -> 12) dst_input_port=3 max_buffer_ratio=1 buffer_over_90_fraction=0.0500289 buffer_full_fraction=0.0500289 max_full_streak=7 edge_capacity=0.222222 max_edge_load=0.181 max_edge_utilization=0.8145 total_traversals=6163 buffer_exploded=1 load_exceeded_capacity=0
Edge (10 -> 13) dst_input_port=3 max_buffer_ratio=1 buffer_over_90_fraction=0.0470904 buffer_full_fraction=0.0470904 max_full_streak=4 edge_capacity=0.222222 max_edge_load=0.181 max_edge_utilization=0.8145 total_traversals=6144 buffer_exploded=1 load_exceeded_capacity=0
Edge (10 -> 14) dst_input_port=3 max_buffer_ratio=1 buffer_over_90_fraction=0.0516809 buffer_full_fraction=0.0516809 max_full_streak=6 edge_capacity=0.222222 max_edge_load=0.182 max_edge_utilization=0.819 total_traversals=6168 buffer_exploded=1 load_exceeded_capacity=0
Edge (10 -> 15) dst_input_port=3 max_buffer_ratio=1 buffer_over_90_fraction=0.0214033 buffer_full_fraction=0.0214033 max_full_streak=5 edge_capacity=0.222222 max_edge_load=0.181 max_edge_utilization=0.8145 total_traversals=6176 buffer_exploded=1 load_exceeded_capacity=0
Edge (10 -> 16) dst_input_port=3 max_buffer_ratio=1 buffer_over_90_fraction=0.0320668 buffer_full_fraction=0.0320668 max_full_streak=6 edge_capacity=0.222222 max_edge_load=0.181 max_edge_utilization=0.8145 total_traversals=6158 buffer_exploded=1 load_exceeded_capacity=0
Edge (10 -> 17) dst_input_port=3 max_buffer_ratio=1 buffer_over_90_fraction=0.0325133 buffer_full_fraction=0.0325133 max_full_streak=7 edge_capacity=0.222222 max_edge_load=0.183 max_edge_utilization=0.8235 total_traversals=6169 buffer_exploded=1 load_exceeded_capacity=0
Edge (10 -> 28) dst_input_port=0 max_buffer_ratio=1 buffer_over_90_fraction=0.000771456 buffer_full_fraction=0.000771456 max_full_streak=2 edge_capacity=1 max_edge_load=0.272 max_edge_utilization=0.272 total_traversals=9234 buffer_exploded=1 load_exceeded_capacity=0
Edge (11 -> 2) dst_input_port=0 max_buffer_ratio=1 buffer_over_90_fraction=0.00098206 buffer_full_fraction=0.00098206 max_full_streak=2 edge_capacity=1 max_edge_load=0.271 max_edge_utilization=0.271 total_traversals=9206 buffer_exploded=1 load_exceeded_capacity=0
Edge (11 -> 9) dst_input_port=3 max_buffer_ratio=1 buffer_over_90_fraction=0.0242432 buffer_full_fraction=0.0242432 max_full_streak=5 edge_capacity=0.222222 max_edge_load=0.181 max_edge_utilization=0.8145 total_traversals=6134 buffer_exploded=1 load_exceeded_capacity=0
Edge (11 -> 10) dst_input_port=3 max_buffer_ratio=1 buffer_over_90_fraction=0.0479272 buffer_full_fraction=0.0479272 max_full_streak=5 edge_capacity=0.222222 max_edge_load=0.18 max_edge_utilization=0.81 total_traversals=6123 buffer_exploded=1 load_exceeded_capacity=0
Edge (11 -> 12) dst_input_port=4 max_buffer_ratio=1 buffer_over_90_fraction=0.0433013 buffer_full_fraction=0.0433013 max_full_streak=6 edge_capacity=0.222222 max_edge_load=0.18 max_edge_utilization=0.81 total_traversals=6146 buffer_exploded=1 load_exceeded_capacity=0
Edge (11 -> 13) dst_input_port=4 max_buffer_ratio=1 buffer_over_90_fraction=0.0498649 buffer_full_fraction=0.0498649 max_full_streak=5 edge_capacity=0.222222 max_edge_load=0.182 max_edge_utilization=0.819 total_traversals=6127 buffer_exploded=1 load_exceeded_capacity=0
Edge (11 -> 14) dst_input_port=4 max_buffer_ratio=1 buffer_over_90_fraction=0.0214765 buffer_full_fraction=0.0214765 max_full_streak=5 edge_capacity=0.222222 max_edge_load=0.18 max_edge_utilization=0.81 total_traversals=6150 buffer_exploded=1 load_exceeded_capacity=0
Edge (11 -> 15) dst_input_port=4 max_buffer_ratio=1 buffer_over_90_fraction=0.0656101 buffer_full_fraction=0.0656101 max_full_streak=6 edge_capacity=0.222222 max_edge_load=0.181 max_edge_utilization=0.8145 total_traversals=6159 buffer_exploded=1 load_exceeded_capacity=0
Edge (11 -> 16) dst_input_port=4 max_buffer_ratio=1 buffer_over_90_fraction=0.0599772 buffer_full_fraction=0.0599772 max_full_streak=6 edge_capacity=0.222222 max_edge_load=0.182 max_edge_utilization=0.819 total_traversals=6140 buffer_exploded=1 load_exceeded_capacity=0
Edge (11 -> 17) dst_input_port=4 max_buffer_ratio=1 buffer_over_90_fraction=0.0357889 buffer_full_fraction=0.0357889 max_full_streak=5 edge_capacity=0.222222 max_edge_load=0.182 max_edge_utilization=0.819 total_traversals=6151 buffer_exploded=1 load_exceeded_capacity=0
Edge (11 -> 29) dst_input_port=0 max_buffer_ratio=1 buffer_over_90_fraction=0.000684031 buffer_full_fraction=0.000684031 max_full_streak=1 edge_capacity=1 max_edge_load=0.272 max_edge_utilization=0.272 total_traversals=9234 buffer_exploded=1 load_exceeded_capacity=0
Edge (12 -> 3) dst_input_port=0 max_buffer_ratio=1 buffer_over_90_fraction=0.00100002 buffer_full_fraction=0.00100002 max_full_streak=1 edge_capacity=1 max_edge_load=0.272 max_edge_utilization=0.272 total_traversals=9206 buffer_exploded=1 load_exceeded_capacity=0
Edge (12 -> 9) dst_input_port=4 max_buffer_ratio=1 buffer_over_90_fraction=0.0249438 buffer_full_fraction=0.0249438 max_full_streak=5 edge_capacity=0.222222 max_edge_load=0.18 max_edge_utilization=0.81 total_traversals=6149 buffer_exploded=1 load_exceeded_capacity=0
Edge (12 -> 10) dst_input_port=4 max_buffer_ratio=1 buffer_over_90_fraction=0.0462243 buffer_full_fraction=0.0462243 max_full_streak=6 edge_capacity=0.222222 max_edge_load=0.18 max_edge_utilization=0.81 total_traversals=6138 buffer_exploded=1 load_exceeded_capacity=0
Edge (12 -> 11) dst_input_port=4 max_buffer_ratio=1 buffer_over_90_fraction=0.0401671 buffer_full_fraction=0.0401671 max_full_streak=5 edge_capacity=0.222222 max_edge_load=0.182 max_edge_utilization=0.819 total_traversals=6168 buffer_exploded=1 load_exceeded_capacity=0
Edge (12 -> 13) dst_input_port=5 max_buffer_ratio=1 buffer_over_90_fraction=0.0380438 buffer_full_fraction=0.0380438 max_full_streak=5 edge_capacity=0.222222 max_edge_load=0.181 max_edge_utilization=0.8145 total_traversals=6142 buffer_exploded=1 load_exceeded_capacity=0
Edge (12 -> 14) dst_input_port=5 max_buffer_ratio=1 buffer_over_90_fraction=0.047946 buffer_full_fraction=0.047946 max_full_streak=5 edge_capacity=0.222222 max_edge_load=0.181 max_edge_utilization=0.8145 total_traversals=6165 buffer_exploded=1 load_exceeded_capacity=0
Edge (12 -> 15) dst_input_port=5 max_buffer_ratio=1 buffer_over_90_fraction=0.019782 buffer_full_fraction=0.019782 max_full_streak=6 edge_capacity=0.222222 max_edge_load=0.183 max_edge_utilization=0.8235 total_traversals=6175 buffer_exploded=1 load_exceeded_capacity=0
Edge (12 -> 16) dst_input_port=5 max_buffer_ratio=1 buffer_over_90_fraction=0.0584693 buffer_full_fraction=0.0584693 max_full_streak=5 edge_capacity=0.222222 max_edge_load=0.182 max_edge_utilization=0.819 total_traversals=6155 buffer_exploded=1 load_exceeded_capacity=0
Edge (12 -> 17) dst_input_port=5 max_buffer_ratio=1 buffer_over_90_fraction=0.0354559 buffer_full_fraction=0.0354559 max_full_streak=5 edge_capacity=0.222222 max_edge_load=0.181 max_edge_utilization=0.8145 total_traversals=6167 buffer_exploded=1 load_exceeded_capacity=0
Edge (12 -> 30) dst_input_port=0 max_buffer_ratio=1 buffer_over_90_fraction=0.00128099 buffer_full_fraction=0.00128099 max_full_streak=1 edge_capacity=1 max_edge_load=0.27 max_edge_utilization=0.27 total_traversals=9234 buffer_exploded=1 load_exceeded_capacity=0
Edge (13 -> 4) dst_input_port=0 max_buffer_ratio=1 buffer_over_90_fraction=0.000632133 buffer_full_fraction=0.000632133 max_full_streak=1 edge_capacity=1 max_edge_load=0.271 max_edge_utilization=0.271 total_traversals=9206 buffer_exploded=1 load_exceeded_capacity=0
Edge (13 -> 9) dst_input_port=5 max_buffer_ratio=1 buffer_over_90_fraction=0.065741 buffer_full_fraction=0.065741 max_full_streak=5 edge_capacity=0.222222 max_edge_load=0.182 max_edge_utilization=0.819 total_traversals=6130 buffer_exploded=1 load_exceeded_capacity=0
Edge (13 -> 10) dst_input_port=5 max_buffer_ratio=1 buffer_over_90_fraction=0.0467632 buffer_full_fraction=0.0467632 max_full_streak=5 edge_capacity=0.222222 max_edge_load=0.18 max_edge_utilization=0.81 total_traversals=6118 buffer_exploded=1 load_exceeded_capacity=0
Edge (13 -> 11) dst_input_port=5 max_buffer_ratio=1 buffer_over_90_fraction=0.0449665 buffer_full_fraction=0.0449665 max_full_streak=6 edge_capacity=0.222222 max_edge_load=0.182 max_edge_utilization=0.819 total_traversals=6149 buffer_exploded=1 load_exceeded_capacity=0
Edge (13 -> 12) dst_input_port=5 max_buffer_ratio=1 buffer_over_90_fraction=0.0407264 buffer_full_fraction=0.0407264 max_full_streak=5 edge_capacity=0.222222 max_edge_load=0.181 max_edge_utilization=0.8145 total_traversals=6142 buffer_exploded=1 load_exceeded_capacity=0
Edge (13 -> 14) dst_input_port=6 max_buffer_ratio=1 buffer_over_90_fraction=0.0638018 buffer_full_fraction=0.0638018 max_full_streak=6 edge_capacity=0.222222 max_edge_load=0.182 max_edge_utilization=0.819 total_traversals=6146 buffer_exploded=1 load_exceeded_capacity=0
Edge (13 -> 15) dst_input_port=6 max_buffer_ratio=1 buffer_over_90_fraction=0.05912 buffer_full_fraction=0.05912 max_full_streak=5 edge_capacity=0.222222 max_edge_load=0.181 max_edge_utilization=0.8145 total_traversals=6154 buffer_exploded=1 load_exceeded_capacity=0
Edge (13 -> 16) dst_input_port=6 max_buffer_ratio=1 buffer_over_90_fraction=0.0356221 buffer_full_fraction=0.0356221 max_full_streak=6 edge_capacity=0.222222 max_edge_load=0.182 max_edge_utilization=0.819 total_traversals=6135 buffer_exploded=1 load_exceeded_capacity=0
Edge (13 -> 17) dst_input_port=6 max_buffer_ratio=1 buffer_over_90_fraction=0.0248998 buffer_full_fraction=0.0248998 max_full_streak=5 edge_capacity=0.222222 max_edge_load=0.182 max_edge_utilization=0.819 total_traversals=6146 buffer_exploded=1 load_exceeded_capacity=0
Edge (13 -> 31) dst_input_port=0 max_buffer_ratio=1 buffer_over_90_fraction=0.00203641 buffer_full_fraction=0.00203641 max_full_streak=2 edge_capacity=1 max_edge_load=0.271 max_edge_utilization=0.271 total_traversals=9234 buffer_exploded=1 load_exceeded_capacity=0
Edge (14 -> 5) dst_input_port=0 max_buffer_ratio=1 buffer_over_90_fraction=0.000245864 buffer_full_fraction=0.000245864 max_full_streak=1 edge_capacity=1 max_edge_load=0.271 max_edge_utilization=0.271 total_traversals=9206 buffer_exploded=1 load_exceeded_capacity=0
Edge (14 -> 9) dst_input_port=6 max_buffer_ratio=1 buffer_over_90_fraction=0.077391 buffer_full_fraction=0.077391 max_full_streak=5 edge_capacity=0.222222 max_edge_load=0.182 max_edge_utilization=0.819 total_traversals=6123 buffer_exploded=1 load_exceeded_capacity=0
Edge (14 -> 10) dst_input_port=6 max_buffer_ratio=1 buffer_over_90_fraction=0.049801 buffer_full_fraction=0.049801 max_full_streak=9 edge_capacity=0.222222 max_edge_load=0.182 max_edge_utilization=0.819 total_traversals=6111 buffer_exploded=1 load_exceeded_capacity=0
Edge (14 -> 11) dst_input_port=6 max_buffer_ratio=1 buffer_over_90_fraction=0.0202185 buffer_full_fraction=0.0202185 max_full_streak=5 edge_capacity=0.222222 max_edge_load=0.182 max_edge_utilization=0.819 total_traversals=6142 buffer_exploded=1 load_exceeded_capacity=0
Edge (14 -> 12) dst_input_port=6 max_buffer_ratio=1 buffer_over_90_fraction=0.0377173 buffer_full_fraction=0.0377173 max_full_streak=5 edge_capacity=0.222222 max_edge_load=0.18 max_edge_utilization=0.81 total_traversals=6135 buffer_exploded=1 load_exceeded_capacity=0
Edge (14 -> 13) dst_input_port=6 max_buffer_ratio=1 buffer_over_90_fraction=0.0431616 buffer_full_fraction=0.0431616 max_full_streak=5 edge_capacity=0.222222 max_edge_load=0.181 max_edge_utilization=0.8145 total_traversals=6116 buffer_exploded=1 load_exceeded_capacity=0
Edge (14 -> 15) dst_input_port=7 max_buffer_ratio=1 buffer_over_90_fraction=0.0452564 buffer_full_fraction=0.0452564 max_full_streak=5 edge_capacity=0.222222 max_edge_load=0.18 max_edge_utilization=0.81 total_traversals=6148 buffer_exploded=1 load_exceeded_capacity=0
Edge (14 -> 16) dst_input_port=7 max_buffer_ratio=1 buffer_over_90_fraction=0.0327428 buffer_full_fraction=0.0327428 max_full_streak=7 edge_capacity=0.222222 max_edge_load=0.182 max_edge_utilization=0.819 total_traversals=6129 buffer_exploded=1 load_exceeded_capacity=0
Edge (14 -> 17) dst_input_port=7 max_buffer_ratio=1 buffer_over_90_fraction=0.0521238 buffer_full_fraction=0.0521238 max_full_streak=5 edge_capacity=0.222222 max_edge_load=0.184 max_edge_utilization=0.828 total_traversals=6140 buffer_exploded=1 load_exceeded_capacity=0
Edge (14 -> 32) dst_input_port=0 max_buffer_ratio=1 buffer_over_90_fraction=0.00029857 buffer_full_fraction=0.00029857 max_full_streak=1 edge_capacity=1 max_edge_load=0.273 max_edge_utilization=0.273 total_traversals=9234 buffer_exploded=1 load_exceeded_capacity=0
Edge (15 -> 6) dst_input_port=0 max_buffer_ratio=1 buffer_over_90_fraction=0.0009489 buffer_full_fraction=0.0009489 max_full_streak=2 edge_capacity=1 max_edge_load=0.271 max_edge_utilization=0.271 total_traversals=9206 buffer_exploded=1 load_exceeded_capacity=0
Edge (15 -> 9) dst_input_port=7 max_buffer_ratio=1 buffer_over_90_fraction=0.0378506 buffer_full_fraction=0.0378506 max_full_streak=5 edge_capacity=0.222222 max_edge_load=0.181 max_edge_utilization=0.8145 total_traversals=6124 buffer_exploded=1 load_exceeded_capacity=0
Edge (15 -> 10) dst_input_port=7 max_buffer_ratio=1 buffer_over_90_fraction=0.0473291 buffer_full_fraction=0.0473291 max_full_streak=5 edge_capacity=0.222222 max_edge_load=0.181 max_edge_utilization=0.8145 total_traversals=6112 buffer_exploded=1 load_exceeded_capacity=0
Edge (15 -> 11) dst_input_port=7 max_buffer_ratio=1 buffer_over_90_fraction=0.0286657 buffer_full_fraction=0.0286657 max_full_streak=5 edge_capacity=0.222222 max_edge_load=0.181 max_edge_utilization=0.8145 total_traversals=6143 buffer_exploded=1 load_exceeded_capacity=0
Edge (15 -> 12) dst_input_port=7 max_buffer_ratio=1 buffer_over_90_fraction=0.0574816 buffer_full_fraction=0.0574816 max_full_streak=5 edge_capacity=0.222222 max_edge_load=0.179 max_edge_utilization=0.8055 total_traversals=6135 buffer_exploded=1 load_exceeded_capacity=0
Edge (15 -> 13) dst_input_port=7 max_buffer_ratio=1 buffer_over_90_fraction=0.0208202 buffer_full_fraction=0.0208202 max_full_streak=6 edge_capacity=0.222222 max_edge_load=0.182 max_edge_utilization=0.819 total_traversals=6117 buffer_exploded=1 load_exceeded_capacity=0
Edge (15 -> 14) dst_input_port=7 max_buffer_ratio=1 buffer_over_90_fraction=0.0187141 buffer_full_fraction=0.0187141 max_full_streak=5 edge_capacity=0.222222 max_edge_load=0.18 max_edge_utilization=0.81 total_traversals=6140 buffer_exploded=1 load_exceeded_capacity=0
Edge (15 -> 16) dst_input_port=8 max_buffer_ratio=1 buffer_over_90_fraction=0.0230548 buffer_full_fraction=0.0230548 max_full_streak=5 edge_capacity=0.222222 max_edge_load=0.181 max_edge_utilization=0.8145 total_traversals=6130 buffer_exploded=1 load_exceeded_capacity=0
Edge (15 -> 17) dst_input_port=8 max_buffer_ratio=1 buffer_over_90_fraction=0.040019 buffer_full_fraction=0.040019 max_full_streak=4 edge_capacity=0.222222 max_edge_load=0.183 max_edge_utilization=0.8235 total_traversals=6141 buffer_exploded=1 load_exceeded_capacity=0
Edge (15 -> 33) dst_input_port=0 max_buffer_ratio=1 buffer_over_90_fraction=0.000263477 buffer_full_fraction=0.000263477 max_full_streak=1 edge_capacity=1 max_edge_load=0.273 max_edge_utilization=0.273 total_traversals=9232 buffer_exploded=1 load_exceeded_capacity=0
Edge (16 -> 7) dst_input_port=0 max_buffer_ratio=1 buffer_over_90_fraction=0.000949133 buffer_full_fraction=0.000949133 max_full_streak=1 edge_capacity=1 max_edge_load=0.271 max_edge_utilization=0.271 total_traversals=9205 buffer_exploded=1 load_exceeded_capacity=0
Edge (16 -> 9) dst_input_port=8 max_buffer_ratio=1 buffer_over_90_fraction=0.0448565 buffer_full_fraction=0.0448565 max_full_streak=5 edge_capacity=0.222222 max_edge_load=0.181 max_edge_utilization=0.8145 total_traversals=6139 buffer_exploded=1 load_exceeded_capacity=0
Edge (16 -> 10) dst_input_port=8 max_buffer_ratio=1 buffer_over_90_fraction=0.0286491 buffer_full_fraction=0.0286491 max_full_streak=4 edge_capacity=0.222222 max_edge_load=0.181 max_edge_utilization=0.8145 total_traversals=6127 buffer_exploded=1 load_exceeded_capacity=0
Edge (16 -> 11) dst_input_port=8 max_buffer_ratio=1 buffer_over_90_fraction=0.0647241 buffer_full_fraction=0.0647241 max_full_streak=4 edge_capacity=0.222222 max_edge_load=0.181 max_edge_utilization=0.8145 total_traversals=6158 buffer_exploded=1 load_exceeded_capacity=0
Edge (16 -> 12) dst_input_port=8 max_buffer_ratio=1 buffer_over_90_fraction=0.0447087 buffer_full_fraction=0.0447087 max_full_streak=5 edge_capacity=0.222222 max_edge_load=0.182 max_edge_utilization=0.819 total_traversals=6150 buffer_exploded=1 load_exceeded_capacity=0
Edge (16 -> 13) dst_input_port=8 max_buffer_ratio=1 buffer_over_90_fraction=0.0443157 buffer_full_fraction=0.0443157 max_full_streak=5 edge_capacity=0.222222 max_edge_load=0.181 max_edge_utilization=0.8145 total_traversals=6132 buffer_exploded=1 load_exceeded_capacity=0
Edge (16 -> 14) dst_input_port=8 max_buffer_ratio=1 buffer_over_90_fraction=0.0592796 buffer_full_fraction=0.0592796 max_full_streak=7 edge_capacity=0.222222 max_edge_load=0.18 max_edge_utilization=0.81 total_traversals=6155 buffer_exploded=1 load_exceeded_capacity=0
Edge (16 -> 15) dst_input_port=8 max_buffer_ratio=1 buffer_over_90_fraction=0.047208 buffer_full_fraction=0.047208 max_full_streak=5 edge_capacity=0.222222 max_edge_load=0.181 max_edge_utilization=0.8145 total_traversals=6163 buffer_exploded=1 load_exceeded_capacity=0
Edge (16 -> 17) dst_input_port=9 max_buffer_ratio=1 buffer_over_90_fraction=0.0714575 buffer_full_fraction=0.0714575 max_full_streak=6 edge_capacity=0.222222 max_edge_load=0.182 max_edge_utilization=0.819 total_traversals=6155 buffer_exploded=1 load_exceeded_capacity=0
Edge (16 -> 34) dst_input_port=0 max_buffer_ratio=1 buffer_over_90_fraction=0.000808052 buffer_full_fraction=0.000808052 max_full_streak=2 edge_capacity=1 max_edge_load=0.272 max_edge_utilization=0.272 total_traversals=9232 buffer_exploded=1 load_exceeded_capacity=0
Edge (17 -> 8) dst_input_port=0 max_buffer_ratio=1 buffer_over_90_fraction=0.00142443 buffer_full_fraction=0.00142443 max_full_streak=2 edge_capacity=1 max_edge_load=0.271 max_edge_utilization=0.271 total_traversals=9204 buffer_exploded=1 load_exceeded_capacity=0
Edge (17 -> 9) dst_input_port=9 max_buffer_ratio=1 buffer_over_90_fraction=0.036112 buffer_full_fraction=0.036112 max_full_streak=5 edge_capacity=0.222222 max_edge_load=0.18 max_edge_utilization=0.81 total_traversals=6135 buffer_exploded=1 load_exceeded_capacity=0
Edge (17 -> 10) dst_input_port=9 max_buffer_ratio=1 buffer_over_90_fraction=0.0516872 buffer_full_fraction=0.0516872 max_full_streak=5 edge_capacity=0.222222 max_edge_load=0.181 max_edge_utilization=0.8145 total_traversals=6123 buffer_exploded=1 load_exceeded_capacity=0
Edge (17 -> 11) dst_input_port=9 max_buffer_ratio=1 buffer_over_90_fraction=0.0459905 buffer_full_fraction=0.0459905 max_full_streak=5 edge_capacity=0.222222 max_edge_load=0.184 max_edge_utilization=0.828 total_traversals=6154 buffer_exploded=1 load_exceeded_capacity=0
Edge (17 -> 12) dst_input_port=9 max_buffer_ratio=1 buffer_over_90_fraction=0.044231 buffer_full_fraction=0.044231 max_full_streak=7 edge_capacity=0.222222 max_edge_load=0.18 max_edge_utilization=0.81 total_traversals=6146 buffer_exploded=1 load_exceeded_capacity=0
Edge (17 -> 13) dst_input_port=9 max_buffer_ratio=1 buffer_over_90_fraction=0.0382116 buffer_full_fraction=0.0382116 max_full_streak=5 edge_capacity=0.222222 max_edge_load=0.182 max_edge_utilization=0.819 total_traversals=6128 buffer_exploded=1 load_exceeded_capacity=0
Edge (17 -> 14) dst_input_port=9 max_buffer_ratio=1 buffer_over_90_fraction=0.0198963 buffer_full_fraction=0.0198963 max_full_streak=6 edge_capacity=0.222222 max_edge_load=0.183 max_edge_utilization=0.8235 total_traversals=6151 buffer_exploded=1 load_exceeded_capacity=0
Edge (17 -> 15) dst_input_port=9 max_buffer_ratio=1 buffer_over_90_fraction=0.059528 buffer_full_fraction=0.059528 max_full_streak=6 edge_capacity=0.222222 max_edge_load=0.181 max_edge_utilization=0.8145 total_traversals=6160 buffer_exploded=1 load_exceeded_capacity=0
Edge (17 -> 16) dst_input_port=9 max_buffer_ratio=1 buffer_over_90_fraction=0.0582845 buffer_full_fraction=0.0582845 max_full_streak=7 edge_capacity=0.222222 max_edge_load=0.181 max_edge_utilization=0.8145 total_traversals=6141 buffer_exploded=1 load_exceeded_capacity=0
Edge (17 -> 35) dst_input_port=0 max_buffer_ratio=1 buffer_over_90_fraction=0.00103696 buffer_full_fraction=0.00103696 max_full_streak=1 edge_capacity=1 max_edge_load=0.272 max_edge_utilization=0.272 total_traversals=9232 buffer_exploded=1 load_exceeded_capacity=0
Edge (18 -> 0) dst_input_port=1 max_buffer_ratio=1 buffer_over_90_fraction=0.000438427 buffer_full_fraction=0.000438427 max_full_streak=1 edge_capacity=1 max_edge_load=0.27 max_edge_utilization=0.27 total_traversals=9249 buffer_exploded=1 load_exceeded_capacity=0
Edge (18 -> 19) dst_input_port=2 max_buffer_ratio=1 buffer_over_90_fraction=0.0478554 buffer_full_fraction=0.0478554 max_full_streak=6 edge_capacity=0.222222 max_edge_load=0.181 max_edge_utilization=0.8145 total_traversals=6160 buffer_exploded=1 load_exceeded_capacity=0
Edge (18 -> 20) dst_input_port=2 max_buffer_ratio=1 buffer_over_90_fraction=0.0209762 buffer_full_fraction=0.0209762 max_full_streak=6 edge_capacity=0.222222 max_edge_load=0.182 max_edge_utilization=0.819 total_traversals=6159 buffer_exploded=1 load_exceeded_capacity=0
Edge (18 -> 21) dst_input_port=2 max_buffer_ratio=1 buffer_over_90_fraction=0.00361613 buffer_full_fraction=0.00361613 max_full_streak=5 edge_capacity=0.222222 max_edge_load=0.182 max_edge_utilization=0.819 total_traversals=6192 buffer_exploded=1 load_exceeded_capacity=0
Edge (18 -> 22) dst_input_port=2 max_buffer_ratio=1 buffer_over_90_fraction=0.0223641 buffer_full_fraction=0.0223641 max_full_streak=5 edge_capacity=0.222222 max_edge_load=0.182 max_edge_utilization=0.819 total_traversals=6174 buffer_exploded=1 load_exceeded_capacity=0
Edge (18 -> 23) dst_input_port=2 max_buffer_ratio=1 buffer_over_90_fraction=0.0609807 buffer_full_fraction=0.0609807 max_full_streak=8 edge_capacity=0.222222 max_edge_load=0.179 max_edge_utilization=0.8055 total_traversals=6151 buffer_exploded=1 load_exceeded_capacity=0
Edge (18 -> 24) dst_input_port=2 max_buffer_ratio=1 buffer_over_90_fraction=0.0391187 buffer_full_fraction=0.0391187 max_full_streak=5 edge_capacity=0.222222 max_edge_load=0.18 max_edge_utilization=0.81 total_traversals=6158 buffer_exploded=1 load_exceeded_capacity=0
Edge (18 -> 25) dst_input_port=2 max_buffer_ratio=1 buffer_over_90_fraction=0.0477877 buffer_full_fraction=0.0477877 max_full_streak=5 edge_capacity=0.222222 max_edge_load=0.181 max_edge_utilization=0.8145 total_traversals=6150 buffer_exploded=1 load_exceeded_capacity=0
Edge (18 -> 26) dst_input_port=2 max_buffer_ratio=1 buffer_over_90_fraction=0.0239844 buffer_full_fraction=0.0239844 max_full_streak=8 edge_capacity=0.222222 max_edge_load=0.181 max_edge_utilization=0.8145 total_traversals=6186 buffer_exploded=1 load_exceeded_capacity=0
Edge (18 -> 27) dst_input_port=1 max_buffer_ratio=1 buffer_over_90_fraction=0.00028048 buffer_full_fraction=0.00028048 max_full_streak=1 edge_capacity=1 max_edge_load=0.272 max_edge_utilization=0.272 total_traversals=9209 buffer_exploded=1 load_exceeded_capacity=0
Edge (19 -> 1) dst_input_port=1 max_buffer_ratio=1 buffer_over_90_fraction=0.00131544 buffer_full_fraction=0.00131544 max_full_streak=1 edge_capacity=1 max_edge_load=0.27 max_edge_utilization=0.27 total_traversals=9249 buffer_exploded=1 load_exceeded_capacity=0
Edge (19 -> 18) dst_input_port=2 max_buffer_ratio=1 buffer_over_90_fraction=0.0325563 buffer_full_fraction=0.0325563 max_full_streak=6 edge_capacity=0.222222 max_edge_load=0.181 max_edge_utilization=0.8145 total_traversals=6138 buffer_exploded=1 load_exceeded_capacity=0
Edge (19 -> 20) dst_input_port=3 max_buffer_ratio=1 buffer_over_90_fraction=0.0360746 buffer_full_fraction=0.0360746 max_full_streak=6 edge_capacity=0.222222 max_edge_load=0.181 max_edge_utilization=0.8145 total_traversals=6145 buffer_exploded=1 load_exceeded_capacity=0
Edge (19 -> 21) dst_input_port=3 max_buffer_ratio=1 buffer_over_90_fraction=0.0280718 buffer_full_fraction=0.0280718 max_full_streak=6 edge_capacity=0.222222 max_edge_load=0.182 max_edge_utilization=0.819 total_traversals=6178 buffer_exploded=1 load_exceeded_capacity=0
Edge (19 -> 22) dst_input_port=3 max_buffer_ratio=1 buffer_over_90_fraction=0.0485065 buffer_full_fraction=0.0485065 max_full_streak=6 edge_capacity=0.222222 max_edge_load=0.181 max_edge_utilization=0.8145 total_traversals=6159 buffer_exploded=1 load_exceeded_capacity=0
Edge (19 -> 23) dst_input_port=3 max_buffer_ratio=1 buffer_over_90_fraction=0.0349982 buffer_full_fraction=0.0349982 max_full_streak=5 edge_capacity=0.222222 max_edge_load=0.18 max_edge_utilization=0.81 total_traversals=6136 buffer_exploded=1 load_exceeded_capacity=0
Edge (19 -> 24) dst_input_port=3 max_buffer_ratio=1 buffer_over_90_fraction=0.0309857 buffer_full_fraction=0.0309857 max_full_streak=5 edge_capacity=0.222222 max_edge_load=0.182 max_edge_utilization=0.819 total_traversals=6142 buffer_exploded=1 load_exceeded_capacity=0
Edge (19 -> 25) dst_input_port=3 max_buffer_ratio=1 buffer_over_90_fraction=0.0626184 buffer_full_fraction=0.0626184 max_full_streak=6 edge_capacity=0.222222 max_edge_load=0.182 max_edge_utilization=0.819 total_traversals=6136 buffer_exploded=1 load_exceeded_capacity=0
Edge (19 -> 26) dst_input_port=3 max_buffer_ratio=1 buffer_over_90_fraction=0.0420159 buffer_full_fraction=0.0420159 max_full_streak=6 edge_capacity=0.222222 max_edge_load=0.182 max_edge_utilization=0.819 total_traversals=6172 buffer_exploded=1 load_exceeded_capacity=0
Edge (19 -> 28) dst_input_port=1 max_buffer_ratio=1 buffer_over_90_fraction=0.000280559 buffer_full_fraction=0.000280559 max_full_streak=1 edge_capacity=1 max_edge_load=0.272 max_edge_utilization=0.272 total_traversals=9209 buffer_exploded=1 load_exceeded_capacity=0
Edge (20 -> 2) dst_input_port=1 max_buffer_ratio=1 buffer_over_90_fraction=0.000736855 buffer_full_fraction=0.000736855 max_full_streak=1 edge_capacity=1 max_edge_load=0.271 max_edge_utilization=0.271 total_traversals=9248 buffer_exploded=1 load_exceeded_capacity=0
[...]
Edge (28 -> 34) dst_input_port=3 max_buffer_ratio=1 buffer_over_90_fraction=0.0538146 buffer_full_fraction=0.0538146 max_full_streak=5 edge_capacity=0.222222 max_edge_load=0.181 max_edge_utilization=0.8145 total_traversals=6140 buffer_exploded=1 load_exceeded_capacity=0
Edge (28 -> 35) dst_input_port=3 max_buffer_ratio=1 buffer_over_90_fraction=0.0405612 buffer_full_fraction=0.0405612 max_full_streak=5 edge_capacity=0.222222 max_edge_load=0.182 max_edge_utilization=0.819 total_traversals=6139 buffer_exploded=1 load_exceeded_capacity=0
Edge (29 -> 11) dst_input_port=1 max_buffer_ratio=1 buffer_over_90_fraction=0.000368285 buffer_full_fraction=0.000368285 max_full_streak=2 edge_capacity=1 max_edge_load=0.269 max_edge_utilization=0.269 total_traversals=9239 buffer_exploded=1 load_exceeded_capacity=0
Edge (29 -> 20) dst_input_port=1 max_buffer_ratio=1 buffer_over_90_fraction=0.00031564 buffer_full_fraction=0.00031564 max_full_streak=1 edge_capacity=1 max_edge_load=0.272 max_edge_utilization=0.272 total_traversals=9195 buffer_exploded=1 load_exceeded_capacity=0
Edge (29 -> 27) dst_input_port=3 max_buffer_ratio=1 buffer_over_90_fraction=0.0412628 buffer_full_fraction=0.0412628 max_full_streak=7 edge_capacity=0.222222 max_edge_load=0.181 max_edge_utilization=0.8145 total_traversals=6152 buffer_exploded=1 load_exceeded_capacity=0
Edge (29 -> 28) dst_input_port=3 max_buffer_ratio=1 buffer_over_90_fraction=0.0382148 buffer_full_fraction=0.0382148 max_full_streak=8 edge_capacity=0.222222 max_edge_load=0.182 max_edge_utilization=0.819 total_traversals=6170 buffer_exploded=1 load_exceeded_capacity=0
Edge (29 -> 30) dst_input_port=4 max_buffer_ratio=1 buffer_over_90_fraction=0.0314552 buffer_full_fraction=0.0314552 max_full_streak=6 edge_capacity=0.222222 max_edge_load=0.182 max_edge_utilization=0.819 total_traversals=6179 buffer_exploded=1 load_exceeded_capacity=0
Edge (29 -> 31) dst_input_port=4 max_buffer_ratio=1 buffer_over_90_fraction=0.0567994 buffer_full_fraction=0.0567994 max_full_streak=7 edge_capacity=0.222222 max_edge_load=0.182 max_edge_utilization=0.819 total_traversals=6149 buffer_exploded=1 load_exceeded_capacity=0
Edge (29 -> 32) dst_input_port=4 max_buffer_ratio=1 buffer_over_90_fraction=0.0259804 buffer_full_fraction=0.0259804 max_full_streak=6 edge_capacity=0.222222 max_edge_load=0.183 max_edge_utilization=0.8235 total_traversals=6147 buffer_exploded=1 load_exceeded_capacity=0
Edge (29 -> 33) dst_input_port=4 max_buffer_ratio=1 buffer_over_90_fraction=0.0662643 buffer_full_fraction=0.0662643 max_full_streak=5 edge_capacity=0.222222 max_edge_load=0.181 max_edge_utilization=0.8145 total_traversals=6156 buffer_exploded=1 load_exceeded_capacity=0
Edge (29 -> 34) dst_input_port=4 max_buffer_ratio=1 buffer_over_90_fraction=0.0347395 buffer_full_fraction=0.0347395 max_full_streak=5 edge_capacity=0.222222 max_edge_load=0.18 max_edge_utilization=0.81 total_traversals=6158 buffer_exploded=1 load_exceeded_capacity=0
Edge (29 -> 35) dst_input_port=4 max_buffer_ratio=1 buffer_over_90_fraction=0.0255412 buffer_full_fraction=0.0255412 max_full_streak=5 edge_capacity=0.222222 max_edge_load=0.182 max_edge_utilization=0.819 total_traversals=6157 buffer_exploded=1 load_exceeded_capacity=0
Edge (30 -> 12) dst_input_port=1 max_buffer_ratio=1 buffer_over_90_fraction=0.00114103 buffer_full_fraction=0.00114103 max_full_streak=1 edge_capacity=1 max_edge_load=0.272 max_edge_utilization=0.272 total_traversals=9239 buffer_exploded=1 load_exceeded_capacity=0
Edge (30 -> 21) dst_input_port=1 max_buffer_ratio=1 buffer_over_90_fraction=0.00163138 buffer_full_fraction=0.00163138 max_full_streak=2 edge_capacity=1 max_edge_load=0.271 max_edge_utilization=0.271 total_traversals=9195 buffer_exploded=1 load_exceeded_capacity=0
Edge (30 -> 27) dst_input_port=4 max_buffer_ratio=1 buffer_over_90_fraction=0.0493223 buffer_full_fraction=0.0493223 max_full_streak=5 edge_capacity=0.222222 max_edge_load=0.18 max_edge_utilization=0.81 total_traversals=6146 buffer_exploded=1 load_exceeded_capacity=0
Edge (30 -> 28) dst_input_port=4 max_buffer_ratio=1 buffer_over_90_fraction=0.0466059 buffer_full_fraction=0.0466059 max_full_streak=5 edge_capacity=0.222222 max_edge_load=0.18 max_edge_utilization=0.81 total_traversals=6164 buffer_exploded=1 load_exceeded_capacity=0
Edge (30 -> 29) dst_input_port=4 max_buffer_ratio=1 buffer_over_90_fraction=0.0438047 buffer_full_fraction=0.0438047 max_full_streak=7 edge_capacity=0.222222 max_edge_load=0.182 max_edge_utilization=0.819 total_traversals=6141 buffer_exploded=1 load_exceeded_capacity=0
Edge (30 -> 31) dst_input_port=5 max_buffer_ratio=1 buffer_over_90_fraction=0.024846 buffer_full_fraction=0.024846 max_full_streak=6 edge_capacity=0.222222 max_edge_load=0.181 max_edge_utilization=0.8145 total_traversals=6143 buffer_exploded=1 load_exceeded_capacity=0
Edge (30 -> 32) dst_input_port=5 max_buffer_ratio=1 buffer_over_90_fraction=0.0590548 buffer_full_fraction=0.0590548 max_full_streak=5 edge_capacity=0.222222 max_edge_load=0.18 max_edge_utilization=0.81 total_traversals=6141 buffer_exploded=1 load_exceeded_capacity=0
Edge (30 -> 33) dst_input_port=5 max_buffer_ratio=1 buffer_over_90_fraction=0.0293138 buffer_full_fraction=0.0293138 max_full_streak=5 edge_capacity=0.222222 max_edge_load=0.182 max_edge_utilization=0.819 total_traversals=6151 buffer_exploded=1 load_exceeded_capacity=0
Edge (30 -> 34) dst_input_port=5 max_buffer_ratio=1 buffer_over_90_fraction=0.0398575 buffer_full_fraction=0.0398575 max_full_streak=5 edge_capacity=0.222222 max_edge_load=0.18 max_edge_utilization=0.81 total_traversals=6152 buffer_exploded=1 load_exceeded_capacity=0
Edge (30 -> 35) dst_input_port=5 max_buffer_ratio=1 buffer_over_90_fraction=0.0464034 buffer_full_fraction=0.0464034 max_full_streak=8 edge_capacity=0.222222 max_edge_load=0.181 max_edge_utilization=0.8145 total_traversals=6151 buffer_exploded=1 load_exceeded_capacity=0
Edge (31 -> 13) dst_input_port=1 max_buffer_ratio=1 buffer_over_90_fraction=0.000579313 buffer_full_fraction=0.000579313 max_full_streak=1 edge_capacity=1 max_edge_load=0.27 max_edge_utilization=0.27 total_traversals=9238 buffer_exploded=1 load_exceeded_capacity=0
Edge (31 -> 22) dst_input_port=1 max_buffer_ratio=1 buffer_over_90_fraction=0.00154427 buffer_full_fraction=0.00154427 max_full_streak=2 edge_capacity=1 max_edge_load=0.271 max_edge_utilization=0.271 total_traversals=9195 buffer_exploded=1 load_exceeded_capacity=0
Edge (31 -> 27) dst_input_port=5 max_buffer_ratio=1 buffer_over_90_fraction=0.067802 buffer_full_fraction=0.067802 max_full_streak=6 edge_capacity=0.222222 max_edge_load=0.179 max_edge_utilization=0.8055 total_traversals=6149 buffer_exploded=1 load_exceeded_capacity=0
Edge (31 -> 28) dst_input_port=5 max_buffer_ratio=1 buffer_over_90_fraction=0.0554483 buffer_full_fraction=0.0554483 max_full_streak=6 edge_capacity=0.222222 max_edge_load=0.181 max_edge_utilization=0.8145 total_traversals=6167 buffer_exploded=1 load_exceeded_capacity=0
Edge (31 -> 29) dst_input_port=5 max_buffer_ratio=1 buffer_over_90_fraction=0.0423825 buffer_full_fraction=0.0423825 max_full_streak=6 edge_capacity=0.222222 max_edge_load=0.181 max_edge_utilization=0.8145 total_traversals=6144 buffer_exploded=1 load_exceeded_capacity=0
Edge (31 -> 30) dst_input_port=5 max_buffer_ratio=1 buffer_over_90_fraction=0.0567687 buffer_full_fraction=0.0567687 max_full_streak=6 edge_capacity=0.222222 max_edge_load=0.18 max_edge_utilization=0.81 total_traversals=6176 buffer_exploded=1 load_exceeded_capacity=0
Edge (31 -> 32) dst_input_port=6 max_buffer_ratio=1 buffer_over_90_fraction=0.0698785 buffer_full_fraction=0.0698785 max_full_streak=6 edge_capacity=0.222222 max_edge_load=0.181 max_edge_utilization=0.8145 total_traversals=6143 buffer_exploded=1 load_exceeded_capacity=0
Edge (31 -> 33) dst_input_port=6 max_buffer_ratio=1 buffer_over_90_fraction=0.0540474 buffer_full_fraction=0.0540474 max_full_streak=6 edge_capacity=0.222222 max_edge_load=0.18 max_edge_utilization=0.81 total_traversals=6152 buffer_exploded=1 load_exceeded_capacity=0
Edge (31 -> 34) dst_input_port=6 max_buffer_ratio=1 buffer_over_90_fraction=0.0535699 buffer_full_fraction=0.0535699 max_full_streak=6 edge_capacity=0.222222 max_edge_load=0.181 max_edge_utilization=0.8145 total_traversals=6154 buffer_exploded=1 load_exceeded_capacity=0
Edge (31 -> 35) dst_input_port=6 max_buffer_ratio=1 buffer_over_90_fraction=0.0564852 buffer_full_fraction=0.0564852 max_full_streak=7 edge_capacity=0.222222 max_edge_load=0.181 max_edge_utilization=0.8145 total_traversals=6153 buffer_exploded=1 load_exceeded_capacity=0
Edge (32 -> 14) dst_input_port=1 max_buffer_ratio=1 buffer_over_90_fraction=0.000596942 buffer_full_fraction=0.000596942 max_full_streak=2 edge_capacity=1 max_edge_load=0.271 max_edge_utilization=0.271 total_traversals=9238 buffer_exploded=1 load_exceeded_capacity=0
Edge (32 -> 23) dst_input_port=1 max_buffer_ratio=1 buffer_over_90_fraction=0.00161477 buffer_full_fraction=0.00161477 max_full_streak=1 edge_capacity=1 max_edge_load=0.271 max_edge_utilization=0.271 total_traversals=9194 buffer_exploded=1 load_exceeded_capacity=0
Edge (32 -> 27) dst_input_port=6 max_buffer_ratio=1 buffer_over_90_fraction=0.0613461 buffer_full_fraction=0.0613461 max_full_streak=5 edge_capacity=0.222222 max_edge_load=0.182 max_edge_utilization=0.819 total_traversals=6150 buffer_exploded=1 load_exceeded_capacity=0
Edge (32 -> 28) dst_input_port=6 max_buffer_ratio=1 buffer_over_90_fraction=0.0566233 buffer_full_fraction=0.0566233 max_full_streak=6 edge_capacity=0.222222 max_edge_load=0.182 max_edge_utilization=0.819 total_traversals=6168 buffer_exploded=1 load_exceeded_capacity=0
Edge (32 -> 29) dst_input_port=6 max_buffer_ratio=1 buffer_over_90_fraction=0.0388593 buffer_full_fraction=0.0388593 max_full_streak=5 edge_capacity=0.222222 max_edge_load=0.182 max_edge_utilization=0.819 total_traversals=6144 buffer_exploded=1 load_exceeded_capacity=0
Edge (32 -> 30) dst_input_port=6 max_buffer_ratio=1 buffer_over_90_fraction=0.0723304 buffer_full_fraction=0.0723304 max_full_streak=6 edge_capacity=0.222222 max_edge_load=0.18 max_edge_utilization=0.81 total_traversals=6176 buffer_exploded=1 load_exceeded_capacity=0
Edge (32 -> 31) dst_input_port=6 max_buffer_ratio=1 buffer_over_90_fraction=0.0352162 buffer_full_fraction=0.0352162 max_full_streak=7 edge_capacity=0.222222 max_edge_load=0.181 max_edge_utilization=0.8145 total_traversals=6146 buffer_exploded=1 load_exceeded_capacity=0
Edge (32 -> 33) dst_input_port=7 max_buffer_ratio=1 buffer_over_90_fraction=0.0412974 buffer_full_fraction=0.0412974 max_full_streak=5 edge_capacity=0.222222 max_edge_load=0.182 max_edge_utilization=0.819 total_traversals=6153 buffer_exploded=1 load_exceeded_capacity=0
Edge (32 -> 34) dst_input_port=7 max_buffer_ratio=1 buffer_over_90_fraction=0.0633495 buffer_full_fraction=0.0633495 max_full_streak=5 edge_capacity=0.222222 max_edge_load=0.18 max_edge_utilization=0.81 total_traversals=6155 buffer_exploded=1 load_exceeded_capacity=0
Edge (32 -> 35) dst_input_port=7 max_buffer_ratio=1 buffer_over_90_fraction=0.0521843 buffer_full_fraction=0.0521843 max_full_streak=7 edge_capacity=0.222222 max_edge_load=0.182 max_edge_utilization=0.819 total_traversals=6154 buffer_exploded=1 load_exceeded_capacity=0
Edge (33 -> 15) dst_input_port=1 max_buffer_ratio=1 buffer_over_90_fraction=0.00170364 buffer_full_fraction=0.00170364 max_full_streak=1 edge_capacity=1 max_edge_load=0.271 max_edge_utilization=0.271 total_traversals=9238 buffer_exploded=1 load_exceeded_capacity=0
Edge (33 -> 24) dst_input_port=1 max_buffer_ratio=1 buffer_over_90_fraction=0.00173773 buffer_full_fraction=0.00173773 max_full_streak=1 edge_capacity=1 max_edge_load=0.271 max_edge_utilization=0.271 total_traversals=9194 buffer_exploded=1 load_exceeded_capacity=0
Edge (33 -> 27) dst_input_port=7 max_buffer_ratio=1 buffer_over_90_fraction=0.0388263 buffer_full_fraction=0.0388263 max_full_streak=5 edge_capacity=0.222222 max_edge_load=0.181 max_edge_utilization=0.8145 total_traversals=6142 buffer_exploded=1 load_exceeded_capacity=0
Edge (33 -> 28) dst_input_port=7 max_buffer_ratio=1 buffer_over_90_fraction=0.0567607 buffer_full_fraction=0.0567607 max_full_streak=5 edge_capacity=0.222222 max_edge_load=0.181 max_edge_utilization=0.8145 total_traversals=6160 buffer_exploded=1 load_exceeded_capacity=0
Edge (33 -> 29) dst_input_port=7 max_buffer_ratio=1 buffer_over_90_fraction=0.060364 buffer_full_fraction=0.060364 max_full_streak=4 edge_capacity=0.222222 max_edge_load=0.181 max_edge_utilization=0.8145 total_traversals=6137 buffer_exploded=1 load_exceeded_capacity=0
Edge (33 -> 30) dst_input_port=7 max_buffer_ratio=1 buffer_over_90_fraction=0.0510389 buffer_full_fraction=0.0510389 max_full_streak=5 edge_capacity=0.222222 max_edge_load=0.181 max_edge_utilization=0.8145 total_traversals=6169 buffer_exploded=1 load_exceeded_capacity=0
Edge (33 -> 31) dst_input_port=7 max_buffer_ratio=1 buffer_over_90_fraction=0.0452509 buffer_full_fraction=0.0452509 max_full_streak=7 edge_capacity=0.222222 max_edge_load=0.18 max_edge_utilization=0.81 total_traversals=6138 buffer_exploded=1 load_exceeded_capacity=0
Edge (33 -> 32) dst_input_port=7 max_buffer_ratio=1 buffer_over_90_fraction=0.04059 buffer_full_fraction=0.04059 max_full_streak=7 edge_capacity=0.222222 max_edge_load=0.18 max_edge_utilization=0.81 total_traversals=6137 buffer_exploded=1 load_exceeded_capacity=0
Edge (33 -> 34) dst_input_port=8 max_buffer_ratio=1 buffer_over_90_fraction=0.0358022 buffer_full_fraction=0.0358022 max_full_streak=4 edge_capacity=0.222222 max_edge_load=0.181 max_edge_utilization=0.8145 total_traversals=6147 buffer_exploded=1 load_exceeded_capacity=0
Edge (33 -> 35) dst_input_port=8 max_buffer_ratio=1 buffer_over_90_fraction=0.0245831 buffer_full_fraction=0.0245831 max_full_streak=5 edge_capacity=0.222222 max_edge_load=0.18 max_edge_utilization=0.81 total_traversals=6147 buffer_exploded=1 load_exceeded_capacity=0
Edge (34 -> 16) dst_input_port=1 max_buffer_ratio=1 buffer_over_90_fraction=0.00105385 buffer_full_fraction=0.00105385 max_full_streak=1 edge_capacity=1 max_edge_load=0.271 max_edge_utilization=0.271 total_traversals=9238 buffer_exploded=1 load_exceeded_capacity=0
Edge (34 -> 25) dst_input_port=1 max_buffer_ratio=1 buffer_over_90_fraction=0.00179045 buffer_full_fraction=0.00179045 max_full_streak=1 edge_capacity=1 max_edge_load=0.27 max_edge_utilization=0.27 total_traversals=9194 buffer_exploded=1 load_exceeded_capacity=0
Edge (34 -> 27) dst_input_port=8 max_buffer_ratio=1 buffer_over_90_fraction=0.0387333 buffer_full_fraction=0.0387333 max_full_streak=5 edge_capacity=0.222222 max_edge_load=0.182 max_edge_utilization=0.819 total_traversals=6126 buffer_exploded=1 load_exceeded_capacity=0
Edge (34 -> 28) dst_input_port=8 max_buffer_ratio=1 buffer_over_90_fraction=0.0433127 buffer_full_fraction=0.0433127 max_full_streak=5 edge_capacity=0.222222 max_edge_load=0.181 max_edge_utilization=0.8145 total_traversals=6144 buffer_exploded=1 load_exceeded_capacity=0
Edge (34 -> 29) dst_input_port=8 max_buffer_ratio=1 buffer_over_90_fraction=0.0670562 buffer_full_fraction=0.0670562 max_full_streak=5 edge_capacity=0.222222 max_edge_load=0.181 max_edge_utilization=0.8145 total_traversals=6120 buffer_exploded=1 load_exceeded_capacity=0
Edge (34 -> 30) dst_input_port=8 max_buffer_ratio=1 buffer_over_90_fraction=0.0374061 buffer_full_fraction=0.0374061 max_full_streak=6 edge_capacity=0.222222 max_edge_load=0.181 max_edge_utilization=0.8145 total_traversals=6152 buffer_exploded=1 load_exceeded_capacity=0
Edge (34 -> 31) dst_input_port=8 max_buffer_ratio=1 buffer_over_90_fraction=0.0503466 buffer_full_fraction=0.0503466 max_full_streak=6 edge_capacity=0.222222 max_edge_load=0.182 max_edge_utilization=0.819 total_traversals=6121 buffer_exploded=1 load_exceeded_capacity=0
Edge (34 -> 32) dst_input_port=8 max_buffer_ratio=1 buffer_over_90_fraction=0.0386991 buffer_full_fraction=0.0386991 max_full_streak=5 edge_capacity=0.222222 max_edge_load=0.181 max_edge_utilization=0.8145 total_traversals=6120 buffer_exploded=1 load_exceeded_capacity=0
Edge (34 -> 33) dst_input_port=8 max_buffer_ratio=1 buffer_over_90_fraction=0.0648004 buffer_full_fraction=0.0648004 max_full_streak=5 edge_capacity=0.222222 max_edge_load=0.182 max_edge_utilization=0.819 total_traversals=6129 buffer_exploded=1 load_exceeded_capacity=0
Edge (34 -> 35) dst_input_port=9 max_buffer_ratio=1 buffer_over_90_fraction=0.0385379 buffer_full_fraction=0.0385379 max_full_streak=5 edge_capacity=0.222222 max_edge_load=0.181 max_edge_utilization=0.8145 total_traversals=6130 buffer_exploded=1 load_exceeded_capacity=0
Edge (35 -> 17) dst_input_port=1 max_buffer_ratio=1 buffer_over_90_fraction=0.000527537 buffer_full_fraction=0.000527537 max_full_streak=2 edge_capacity=1 max_edge_load=0.27 max_edge_utilization=0.27 total_traversals=9238 buffer_exploded=1 load_exceeded_capacity=0
Edge (35 -> 26) dst_input_port=1 max_buffer_ratio=1 buffer_over_90_fraction=0.000843185 buffer_full_fraction=0.000843185 max_full_streak=1 edge_capacity=1 max_edge_load=0.271 max_edge_utilization=0.271 total_traversals=9194 buffer_exploded=1 load_exceeded_capacity=0
Edge (35 -> 27) dst_input_port=9 max_buffer_ratio=1 buffer_over_90_fraction=0.0450823 buffer_full_fraction=0.0450823 max_full_streak=5 edge_capacity=0.222222 max_edge_load=0.181 max_edge_utilization=0.8145 total_traversals=6151 buffer_exploded=1 load_exceeded_capacity=0
Edge (35 -> 28) dst_input_port=9 max_buffer_ratio=1 buffer_over_90_fraction=0.053 buffer_full_fraction=0.053 max_full_streak=6 edge_capacity=0.222222 max_edge_load=0.182 max_edge_utilization=0.819 total_traversals=6169 buffer_exploded=1 load_exceeded_capacity=0
Edge (35 -> 29) dst_input_port=9 max_buffer_ratio=1 buffer_over_90_fraction=0.049971 buffer_full_fraction=0.049971 max_full_streak=5 edge_capacity=0.222222 max_edge_load=0.184 max_edge_utilization=0.828 total_traversals=6146 buffer_exploded=1 load_exceeded_capacity=0
Edge (35 -> 30) dst_input_port=9 max_buffer_ratio=1 buffer_over_90_fraction=0.0463197 buffer_full_fraction=0.0463197 max_full_streak=5 edge_capacity=0.222222 max_edge_load=0.181 max_edge_utilization=0.8145 total_traversals=6178 buffer_exploded=1 load_exceeded_capacity=0
Edge (35 -> 31) dst_input_port=9 max_buffer_ratio=1 buffer_over_90_fraction=0.0558006 buffer_full_fraction=0.0558006 max_full_streak=6 edge_capacity=0.222222 max_edge_load=0.183 max_edge_utilization=0.8235 total_traversals=6146 buffer_exploded=1 load_exceeded_capacity=0
Edge (35 -> 32) dst_input_port=9 max_buffer_ratio=1 buffer_over_90_fraction=0.0266029 buffer_full_fraction=0.0266029 max_full_streak=5 edge_capacity=0.222222 max_edge_load=0.181 max_edge_utilization=0.8145 total_traversals=6145 buffer_exploded=1 load_exceeded_capacity=0
Edge (35 -> 33) dst_input_port=9 max_buffer_ratio=1 buffer_over_90_fraction=0.0384703 buffer_full_fraction=0.0384703 max_full_streak=5 edge_capacity=0.222222 max_edge_load=0.182 max_edge_utilization=0.819 total_traversals=6154 buffer_exploded=1 load_exceeded_capacity=0
Edge (35 -> 34) dst_input_port=9 max_buffer_ratio=1 buffer_over_90_fraction=0.0483057 buffer_full_fraction=0.0483057 max_full_streak=6 edge_capacity=0.222222 max_edge_load=0.182 max_edge_utilization=0.819 total_traversals=6155 buffer_exploded=1 load_exceeded_capacity=0
Observed edge count = 360
Observed edge max buffer ratio = 1
Observed edge max load = 0.273
Observed edge max utilization = 0.828
Observed edge avg over-0.9 buffer fraction = 0.0347554
Observed edge avg full-buffer fraction = 0.0347554
Observed edge max over-0.9 buffer fraction = 0.077391
Observed edge max full-buffer fraction = 0.077391
Observed edge worst full-buffer streak = 9
Observed edge exploded buffer count = 360
Observed edge exceeded capacity count = 0

