BEGIN Configuration File: D:\noc_huawei\noc\booksim2-noc_speedup_study\booksim2-noc_speedup_study\tests\data\results\dfm_n9_growth_scheduled_20260409\tmp_configs\dfm_dsl_s2203.config
num_vcs     = 24;
vc_buf_size = 16;
wait_for_tail_credit = 1;

vc_allocator = islip;
sw_allocator = islip;
alloc_iters  = 4;

credit_delay   = 2;
routing_delay  = 0;
vc_alloc_delay = 1;
sw_alloc_delay = 1;
st_final_delay = 1;

input_speedup     = 1;
output_speedup    = 1;
internal_speedup  = 1.0;

sim_type = latency;
latency_thres  = 100000.0;
sim_count      = 1;
queue_sample_period_cycles = 0;

topology = die_mesh_full;
dfm_tiles_per_die = 9;
dfm_intra_bandwidth_num = 4;

dfm_hybrid_soft_threshold = 0.25;
dfm_hybrid_hard_threshold = 0.50;
dfm_hybrid_release_threshold = 0.18;
dfm_hybrid_congestion_alpha = 0.25;
dfm_hybrid_increase_step = 0.50;
dfm_hybrid_decrease_step = 0.06;
dfm_hybrid_capacity_guard_ratio = 0.98;
dfm_hybrid_rate_weight = 0.50;
dfm_hybrid_util_target = 0.98;
dfm_hybrid_util_gain = 0.60;
dfm_hybrid_epoch_cycles = 200;
dfm_hybrid_feedback_delay_per_hop = 1;

hybrid_edge_capacity = 1.0;
hybrid_stats_window_cycles = 1000;

packet_size = 1;
traffic = custom_perm;
custom_perm_array = {3,10,20,6,13,23,0,16,26,12,28,2,15,31,5,9,34,8,21,1,29,24,4,32,18,7,35,30,19,11,33,22,14,27,25,17};

injection_rate = 0.05;
dfm_hybrid_stats_window_cycles = 3000;
max_samples = 26;
scheduled_phase_cycles = {3000,3000,3000,3000,3000,3000,3000,3000,3000,3000,3000,3000,3000,3000,3000,3000,3000,3000};
sample_period = 3000;
routing_function = dfm_dsl;
warmup_periods = 2;
injection_process = scheduled;
scheduled_injection_rates = {0.05,0.1,0.15,0.2,0.25,0.3,0.35,0.4,0.45,0.5,0.55,0.6,0.65,0.7,0.75,0.8,0.8,0.8};
scheduled_default_phase_cycles = 3000;
perm_seed = 2203;
seed = 2203;

END Configuration File: D:\noc_huawei\noc\booksim2-noc_speedup_study\booksim2-noc_speedup_study\tests\data\results\dfm_n9_growth_scheduled_20260409\tmp_configs\dfm_dsl_s2203.config
Class 0:
Packet latency average = 15.8698
	minimum = 10
	maximum = 21
	95th percentile = 18.5
	99th percentile = 20.5
Network latency average = 15.8698
	minimum = 10
	maximum = 21
	95th percentile = 18.5
	99th percentile = 20.5
Slowest packet = 831
Flit latency average = 15.8698
	minimum = 10
	maximum = 21
	95th percentile = 18.5
	99th percentile = 20.5
Slowest flit = 831
Fragmentation average = 0
	minimum = 0
	maximum = 0
Injected packet rate average = 0.0498148
	minimum = 0.0393333 (at node 6)
	maximum = 0.0653333 (at node 5)
Accepted packet rate average = 0.0495556
	minimum = 0.0393333 (at node 0)
	maximum = 0.065 (at node 23)
Injected flit rate average = 0.0498148
	minimum = 0.0393333 (at node 6)
	maximum = 0.0653333 (at node 5)
Accepted flit rate average= 0.0495556
	minimum = 0.0393333 (at node 0)
	maximum = 0.065 (at node 23)
Injected packet length average = 1
Accepted packet length average = 1
Total in-flight flits = 28 (0 measured)
====== Peak Queue Occupancy Statistics (Absolute Max) ======
  Overall Max VC Occupancy = 1
  Overall Max Buffer Occupancy = 2
latency change    = 1
throughput change = 1
Class 0:
Packet latency average = 15.8932
	minimum = 10
	maximum = 22
	95th percentile = 18.5
	99th percentile = 20.5
Network latency average = 15.8932
	minimum = 10
	maximum = 22
	95th percentile = 18.5
	99th percentile = 20.5
Slowest packet = 7684
Flit latency average = 15.8932
	minimum = 10
	maximum = 22
	95th percentile = 18.5
	99th percentile = 20.5
Slowest flit = 7684
Fragmentation average = 0
	minimum = 0
	maximum = 0
Injected packet rate average = 0.0755324
	minimum = 0.0678333 (at node 35)
	maximum = 0.085 (at node 5)
Accepted packet rate average = 0.0752315
	minimum = 0.0671667 (at node 17)
	maximum = 0.0846667 (at node 23)
Injected flit rate average = 0.0755324
	minimum = 0.0678333 (at node 35)
	maximum = 0.085 (at node 5)
Accepted flit rate average= 0.0752315
	minimum = 0.0671667 (at node 17)
	maximum = 0.0846667 (at node 23)
Injected packet length average = 1
Accepted packet length average = 1
Total in-flight flits = 65 (0 measured)
====== Peak Queue Occupancy Statistics (Absolute Max) ======
  Overall Max VC Occupancy = 1
  Overall Max Buffer Occupancy = 2
latency change    = 0.00147239
throughput change = 0.341292
Warmed up ...Time used is 6000 cycles
Class 0:
Packet latency average = 15.9562
	minimum = 10
	maximum = 23
	95th percentile = 19.5
	99th percentile = 20.5
Network latency average = 15.9562
	minimum = 10
	maximum = 23
	95th percentile = 19.5
	99th percentile = 20.5
Slowest packet = 23693
Flit latency average = 15.9576
	minimum = 10
	maximum = 23
	95th percentile = 19.5
	99th percentile = 20.5
Slowest flit = 23693
Fragmentation average = 0
	minimum = 0
	maximum = 0
Injected packet rate average = 0.151417
	minimum = 0.136 (at node 11)
	maximum = 0.163333 (at node 0)
Accepted packet rate average = 0.151213
	minimum = 0.134667 (at node 2)
	maximum = 0.163333 (at node 3)
Injected flit rate average = 0.151417
	minimum = 0.136 (at node 11)
	maximum = 0.163333 (at node 0)
Accepted flit rate average= 0.151213
	minimum = 0.134667 (at node 2)
	maximum = 0.163333 (at node 3)
Injected packet length average = 1
Accepted packet length average = 1
Total in-flight flits = 87 (87 measured)
====== Peak Queue Occupancy Statistics (Absolute Max) ======
  Overall Max VC Occupancy = 1
  Overall Max Buffer Occupancy = 3
latency change    = 0.00394813
throughput change = 0.50248
Class 0:
Packet latency average = 16.0049
	minimum = 10
	maximum = 23
	95th percentile = 19.5
	99th percentile = 21.5
Network latency average = 16.0049
	minimum = 10
	maximum = 23
	95th percentile = 19.5
	99th percentile = 21.5
Slowest packet = 23693
Flit latency average = 16.0054
	minimum = 10
	maximum = 23
	95th percentile = 19.5
	99th percentile = 21.5
Slowest flit = 23693
Fragmentation average = 0
	minimum = 0
	maximum = 0
Injected packet rate average = 0.176306
	minimum = 0.167333 (at node 11)
	maximum = 0.184667 (at node 5)
Accepted packet rate average = 0.176102
	minimum = 0.166667 (at node 2)
	maximum = 0.184333 (at node 23)
Injected flit rate average = 0.176306
	minimum = 0.167333 (at node 11)
	maximum = 0.184667 (at node 5)
Accepted flit rate average= 0.176102
	minimum = 0.166667 (at node 2)
	maximum = 0.184333 (at node 23)
Injected packet length average = 1
Accepted packet length average = 1
Total in-flight flits = 109 (109 measured)
====== Peak Queue Occupancy Statistics (Absolute Max) ======
  Overall Max VC Occupancy = 1
  Overall Max Buffer Occupancy = 3
latency change    = 0.00304318
throughput change = 0.141332
Class 0:
Packet latency average = 16.0386
	minimum = 10
	maximum = 25
	95th percentile = 19.5
	99th percentile = 21.5
Network latency average = 16.0386
	minimum = 10
	maximum = 25
	95th percentile = 19.5
	99th percentile = 21.5
Slowest packet = 59441
Flit latency average = 16.0389
	minimum = 10
	maximum = 25
	95th percentile = 19.5
	99th percentile = 21.5
Slowest flit = 59441
Fragmentation average = 0
	minimum = 0
	maximum = 0
Injected packet rate average = 0.200731
	minimum = 0.190667 (at node 11)
	maximum = 0.208444 (at node 12)
Accepted packet rate average = 0.200472
	minimum = 0.190556 (at node 2)
	maximum = 0.208111 (at node 15)
Injected flit rate average = 0.200731
	minimum = 0.190667 (at node 11)
	maximum = 0.208444 (at node 12)
Accepted flit rate average= 0.200472
	minimum = 0.190556 (at node 2)
	maximum = 0.208111 (at node 15)
Injected packet length average = 1
Accepted packet length average = 1
Total in-flight flits = 149 (149 measured)
====== Peak Queue Occupancy Statistics (Absolute Max) ======
  Overall Max VC Occupancy = 1
  Overall Max Buffer Occupancy = 3
latency change    = 0.00210324
throughput change = 0.121565
Class 0:
Packet latency average = 16.0957
	minimum = 10
	maximum = 25
	95th percentile = 20.5
	99th percentile = 21.5
Network latency average = 16.0957
	minimum = 10
	maximum = 25
	95th percentile = 20.5
	99th percentile = 21.5
Slowest packet = 59441
Flit latency average = 16.0959
	minimum = 10
	maximum = 25
	95th percentile = 20.5
	99th percentile = 21.5
Slowest flit = 59441
Fragmentation average = 0
	minimum = 0
	maximum = 0
Injected packet rate average = 0.226023
	minimum = 0.212583 (at node 29)
	maximum = 0.23425 (at node 1)
Accepted packet rate average = 0.225748
	minimum = 0.212333 (at node 11)
	maximum = 0.233833 (at node 10)
Injected flit rate average = 0.226023
	minimum = 0.212583 (at node 29)
	maximum = 0.23425 (at node 1)
Accepted flit rate average= 0.225748
	minimum = 0.212333 (at node 11)
	maximum = 0.233833 (at node 10)
Injected packet length average = 1
Accepted packet length average = 1
Total in-flight flits = 184 (184 measured)
====== Peak Queue Occupancy Statistics (Absolute Max) ======
  Overall Max VC Occupancy = 1
  Overall Max Buffer Occupancy = 3
latency change    = 0.0035493
throughput change = 0.111963
Class 0:
Packet latency average = 16.1476
	minimum = 10
	maximum = 27
	95th percentile = 20.5
	99th percentile = 21.5
Network latency average = 16.1476
	minimum = 10
	maximum = 27
	95th percentile = 20.5
	99th percentile = 21.5
Slowest packet = 123477
Flit latency average = 16.1477
	minimum = 10
	maximum = 27
	95th percentile = 20.5
	99th percentile = 21.5
Slowest flit = 123477
Fragmentation average = 0
	minimum = 0
	maximum = 0
Injected packet rate average = 0.25127
	minimum = 0.239133 (at node 29)
	maximum = 0.259267 (at node 1)
Accepted packet rate average = 0.251022
	minimum = 0.238667 (at node 11)
	maximum = 0.259133 (at node 10)
Injected flit rate average = 0.25127
	minimum = 0.239133 (at node 29)
	maximum = 0.259267 (at node 1)
Accepted flit rate average= 0.251022
	minimum = 0.238667 (at node 11)
	maximum = 0.259133 (at node 10)
Injected packet length average = 1
Accepted packet length average = 1
Total in-flight flits = 199 (199 measured)
====== Peak Queue Occupancy Statistics (Absolute Max) ======
  Overall Max VC Occupancy = 1
  Overall Max Buffer Occupancy = 3
latency change    = 0.00321208
throughput change = 0.100686
Class 0:
Packet latency average = 16.2034
	minimum = 10
	maximum = 27
	95th percentile = 20.5
	99th percentile = 21.5
Network latency average = 16.2034
	minimum = 10
	maximum = 27
	95th percentile = 20.5
	99th percentile = 21.5
Slowest packet = 123477
Flit latency average = 16.2034
	minimum = 10
	maximum = 27
	95th percentile = 20.5
	99th percentile = 21.5
Slowest flit = 123477
Fragmentation average = 0
	minimum = 0
	maximum = 0
Injected packet rate average = 0.276144
	minimum = 0.264944 (at node 11)
	maximum = 0.283444 (at node 1)
Accepted packet rate average = 0.275875
	minimum = 0.264611 (at node 2)
	maximum = 0.283222 (at node 10)
Injected flit rate average = 0.276144
	minimum = 0.264944 (at node 11)
	maximum = 0.283444 (at node 1)
Accepted flit rate average= 0.275875
	minimum = 0.264611 (at node 2)
	maximum = 0.283222 (at node 10)
Injected packet length average = 1
Accepted packet length average = 1
Total in-flight flits = 239 (239 measured)
====== Peak Queue Occupancy Statistics (Absolute Max) ======
  Overall Max VC Occupancy = 1
  Overall Max Buffer Occupancy = 3
latency change    = 0.0034423
throughput change = 0.0900871
Class 0:
Packet latency average = 16.2638
	minimum = 10
	maximum = 28
	95th percentile = 20.5
	99th percentile = 21.5
Network latency average = 16.2638
	minimum = 10
	maximum = 28
	95th percentile = 20.5
	99th percentile = 21.5
Slowest packet = 205515
Flit latency average = 16.2638
	minimum = 10
	maximum = 28
	95th percentile = 20.5
	99th percentile = 21.5
Slowest flit = 205515
Fragmentation average = 0
	minimum = 0
	maximum = 0
Injected packet rate average = 0.301267
	minimum = 0.291762 (at node 11)
	maximum = 0.308952 (at node 1)
Accepted packet rate average = 0.300999
	minimum = 0.291476 (at node 2)
	maximum = 0.308762 (at node 10)
Injected flit rate average = 0.301267
	minimum = 0.291762 (at node 11)
	maximum = 0.308952 (at node 1)
Accepted flit rate average= 0.300999
	minimum = 0.291476 (at node 2)
	maximum = 0.308762 (at node 10)
Injected packet length average = 1
Accepted packet length average = 1
Total in-flight flits = 268 (268 measured)
====== Peak Queue Occupancy Statistics (Absolute Max) ======
  Overall Max VC Occupancy = 1
  Overall Max Buffer Occupancy = 3
latency change    = 0.00371249
throughput change = 0.0834677
Class 0:
Packet latency average = 16.3226
	minimum = 10
	maximum = 31
	95th percentile = 20.5
	99th percentile = 22.5
Network latency average = 16.3226
	minimum = 10
	maximum = 31
	95th percentile = 20.5
	99th percentile = 22.5
Slowest packet = 284570
Flit latency average = 16.3226
	minimum = 10
	maximum = 31
	95th percentile = 20.5
	99th percentile = 22.5
Slowest flit = 284570
Fragmentation average = 0
	minimum = 0
	maximum = 0
Injected packet rate average = 0.326075
	minimum = 0.31775 (at node 29)
	maximum = 0.3325 (at node 24)
Accepted packet rate average = 0.325821
	minimum = 0.317333 (at node 11)
	maximum = 0.3325 (at node 18)
Injected flit rate average = 0.326075
	minimum = 0.31775 (at node 29)
	maximum = 0.3325 (at node 24)
Accepted flit rate average= 0.325821
	minimum = 0.317333 (at node 11)
	maximum = 0.3325 (at node 18)
Injected packet length average = 1
Accepted packet length average = 1
Total in-flight flits = 285 (285 measured)
====== Peak Queue Occupancy Statistics (Absolute Max) ======
  Overall Max VC Occupancy = 1
  Overall Max Buffer Occupancy = 3
latency change    = 0.00360376
throughput change = 0.0761828
Class 0:
Packet latency average = 16.3868
	minimum = 10
	maximum = 31
	95th percentile = 20.5
	99th percentile = 22.5
Network latency average = 16.3868
	minimum = 10
	maximum = 31
	95th percentile = 20.5
	99th percentile = 22.5
Slowest packet = 284570
Flit latency average = 16.3868
	minimum = 10
	maximum = 31
	95th percentile = 20.5
	99th percentile = 22.5
Slowest flit = 284570
Fragmentation average = 0
	minimum = 0
	maximum = 0
Injected packet rate average = 0.350966
	minimum = 0.343333 (at node 29)
	maximum = 0.357852 (at node 1)
Accepted packet rate average = 0.350701
	minimum = 0.342963 (at node 11)
	maximum = 0.357593 (at node 10)
Injected flit rate average = 0.350966
	minimum = 0.343333 (at node 29)
	maximum = 0.357852 (at node 1)
Accepted flit rate average= 0.350701
	minimum = 0.342963 (at node 11)
	maximum = 0.357593 (at node 10)
Injected packet length average = 1
Accepted packet length average = 1
Total in-flight flits = 323 (323 measured)
====== Peak Queue Occupancy Statistics (Absolute Max) ======
  Overall Max VC Occupancy = 1
  Overall Max Buffer Occupancy = 3
latency change    = 0.00391858
throughput change = 0.0709437
Class 0:
Packet latency average = 16.4571
	minimum = 10
	maximum = 31
	95th percentile = 20.5
	99th percentile = 22.5
Network latency average = 16.4571
	minimum = 10
	maximum = 31
	95th percentile = 20.5
	99th percentile = 22.5
Slowest packet = 284570
Flit latency average = 16.457
	minimum = 10
	maximum = 31
	95th percentile = 20.5
	99th percentile = 22.5
Slowest flit = 284570
Fragmentation average = 0
	minimum = 0
	maximum = 0
Injected packet rate average = 0.375927
	minimum = 0.3671 (at node 29)
	maximum = 0.383033 (at node 1)
Accepted packet rate average = 0.375627
	minimum = 0.3668 (at node 11)
	maximum = 0.3826 (at node 10)
Injected flit rate average = 0.375927
	minimum = 0.3671 (at node 29)
	maximum = 0.383033 (at node 1)
Accepted flit rate average= 0.375627
	minimum = 0.3668 (at node 11)
	maximum = 0.3826 (at node 10)
Injected packet length average = 1
Accepted packet length average = 1
Total in-flight flits = 389 (389 measured)
====== Peak Queue Occupancy Statistics (Absolute Max) ======
  Overall Max VC Occupancy = 1
  Overall Max Buffer Occupancy = 4
latency change    = 0.00427006
throughput change = 0.066359
Class 0:
Packet latency average = 16.531
	minimum = 10
	maximum = 31
	95th percentile = 21.5
	99th percentile = 22.5
Network latency average = 16.531
	minimum = 10
	maximum = 31
	95th percentile = 21.5
	99th percentile = 22.5
Slowest packet = 284570
Flit latency average = 16.531
	minimum = 10
	maximum = 31
	95th percentile = 21.5
	99th percentile = 22.5
Slowest flit = 284570
Fragmentation average = 0
	minimum = 0
	maximum = 0
Injected packet rate average = 0.400928
	minimum = 0.392545 (at node 29)
	maximum = 0.407212 (at node 24)
Accepted packet rate average = 0.400652
	minimum = 0.392212 (at node 11)
	maximum = 0.407121 (at node 18)
Injected flit rate average = 0.400928
	minimum = 0.392545 (at node 29)
	maximum = 0.407212 (at node 24)
Accepted flit rate average= 0.400652
	minimum = 0.392212 (at node 11)
	maximum = 0.407121 (at node 18)
Injected packet length average = 1
Accepted packet length average = 1
Total in-flight flits = 393 (393 measured)
====== Peak Queue Occupancy Statistics (Absolute Max) ======
  Overall Max VC Occupancy = 1
  Overall Max Buffer Occupancy = 4
latency change    = 0.00447521
throughput change = 0.0624599
Class 0:
Packet latency average = 16.611
	minimum = 10
	maximum = 33
	95th percentile = 21.5
	99th percentile = 22.5
Network latency average = 16.611
	minimum = 10
	maximum = 33
	95th percentile = 21.5
	99th percentile = 22.5
Slowest packet = 541511
Flit latency average = 16.6109
	minimum = 10
	maximum = 33
	95th percentile = 21.5
	99th percentile = 22.5
Slowest flit = 541511
Fragmentation average = 0
	minimum = 0
	maximum = 0
Injected packet rate average = 0.425701
	minimum = 0.417528 (at node 29)
	maximum = 0.431306 (at node 6)
Accepted packet rate average = 0.425415
	minimum = 0.417222 (at node 11)
	maximum = 0.431139 (at node 18)
Injected flit rate average = 0.425701
	minimum = 0.417528 (at node 29)
	maximum = 0.431306 (at node 6)
Accepted flit rate average= 0.425415
	minimum = 0.417222 (at node 11)
	maximum = 0.431139 (at node 18)
Injected packet length average = 1
Accepted packet length average = 1
Total in-flight flits = 435 (435 measured)
====== Peak Queue Occupancy Statistics (Absolute Max) ======
  Overall Max VC Occupancy = 1
  Overall Max Buffer Occupancy = 4
latency change    = 0.00481221
throughput change = 0.0582105
Class 0:
Packet latency average = 16.6996
	minimum = 10
	maximum = 36
	95th percentile = 21.5
	99th percentile = 23.5
Network latency average = 16.6996
	minimum = 10
	maximum = 36
	95th percentile = 21.5
	99th percentile = 23.5
Slowest packet = 604718
Flit latency average = 16.6996
	minimum = 10
	maximum = 36
	95th percentile = 21.5
	99th percentile = 23.5
Slowest flit = 604718
Fragmentation average = 0
	minimum = 0
	maximum = 0
Injected packet rate average = 0.450694
	minimum = 0.443615 (at node 29)
	maximum = 0.456744 (at node 1)
Accepted packet rate average = 0.450397
	minimum = 0.443282 (at node 11)
	maximum = 0.45641 (at node 18)
Injected flit rate average = 0.450694
	minimum = 0.443615 (at node 29)
	maximum = 0.456744 (at node 1)
Accepted flit rate average= 0.450397
	minimum = 0.443282 (at node 11)
	maximum = 0.45641 (at node 18)
Injected packet length average = 1
Accepted packet length average = 1
Total in-flight flits = 482 (482 measured)
====== Peak Queue Occupancy Statistics (Absolute Max) ======
  Overall Max VC Occupancy = 1
  Overall Max Buffer Occupancy = 4
latency change    = 0.0053095
throughput change = 0.0554673
Class 0:
Packet latency average = 16.8008
	minimum = 10
	maximum = 47
	95th percentile = 21.5
	99th percentile = 23.5
Network latency average = 16.8008
	minimum = 10
	maximum = 47
	95th percentile = 21.5
	99th percentile = 23.5
Slowest packet = 718409
Flit latency average = 16.8007
	minimum = 10
	maximum = 47
	95th percentile = 21.5
	99th percentile = 23.5
Slowest flit = 718409
Fragmentation average = 0
	minimum = 0
	maximum = 0
Injected packet rate average = 0.475665
	minimum = 0.468833 (at node 29)
	maximum = 0.480786 (at node 24)
Accepted packet rate average = 0.475377
	minimum = 0.468571 (at node 11)
	maximum = 0.480619 (at node 18)
Injected flit rate average = 0.475665
	minimum = 0.468833 (at node 29)
	maximum = 0.480786 (at node 24)
Accepted flit rate average= 0.475377
	minimum = 0.468571 (at node 11)
	maximum = 0.480619 (at node 18)
Injected packet length average = 1
Accepted packet length average = 1
Total in-flight flits = 500 (500 measured)
====== Peak Queue Occupancy Statistics (Absolute Max) ======
  Overall Max VC Occupancy = 1
  Overall Max Buffer Occupancy = 4
latency change    = 0.00602039
throughput change = 0.0525468
Class 0:
Packet latency average = 16.8796
	minimum = 10
	maximum = 47
	95th percentile = 21.5
	99th percentile = 23.5
Network latency average = 16.8796
	minimum = 10
	maximum = 47
	95th percentile = 21.5
	99th percentile = 23.5
Slowest packet = 718409
Flit latency average = 16.8796
	minimum = 10
	maximum = 47
	95th percentile = 21.5
	99th percentile = 23.5
Slowest flit = 718409
Fragmentation average = 0
	minimum = 0
	maximum = 0
Injected packet rate average = 0.4973
	minimum = 0.491356 (at node 29)
	maximum = 0.502156 (at node 24)
Accepted packet rate average = 0.497015
	minimum = 0.491067 (at node 11)
	maximum = 0.501933 (at node 18)
Injected flit rate average = 0.4973
	minimum = 0.491356 (at node 29)
	maximum = 0.502156 (at node 24)
Accepted flit rate average= 0.497015
	minimum = 0.491067 (at node 11)
	maximum = 0.501933 (at node 18)
Injected packet length average = 1
Accepted packet length average = 1
Total in-flight flits = 526 (526 measured)
====== Peak Queue Occupancy Statistics (Absolute Max) ======
  Overall Max VC Occupancy = 1
  Overall Max Buffer Occupancy = 5
latency change    = 0.00467022
throughput change = 0.0435368
Class 0:
Packet latency average = 16.9423
	minimum = 10
	maximum = 47
	95th percentile = 21.5
	99th percentile = 24.5
Network latency average = 16.9423
	minimum = 10
	maximum = 47
	95th percentile = 21.5
	99th percentile = 24.5
Slowest packet = 718409
Flit latency average = 16.9423
	minimum = 10
	maximum = 47
	95th percentile = 21.5
	99th percentile = 24.5
Slowest flit = 718409
Fragmentation average = 0
	minimum = 0
	maximum = 0
Injected packet rate average = 0.516182
	minimum = 0.510667 (at node 29)
	maximum = 0.521146 (at node 27)
Accepted packet rate average = 0.515939
	minimum = 0.510437 (at node 11)
	maximum = 0.520958 (at node 30)
Injected flit rate average = 0.516182
	minimum = 0.510667 (at node 29)
	maximum = 0.521146 (at node 27)
Accepted flit rate average= 0.515939
	minimum = 0.510437 (at node 11)
	maximum = 0.520958 (at node 30)
Injected packet length average = 1
Accepted packet length average = 1
Total in-flight flits = 485 (485 measured)
====== Peak Queue Occupancy Statistics (Absolute Max) ======
  Overall Max VC Occupancy = 1
  Overall Max Buffer Occupancy = 5
latency change    = 0.00369987
throughput change = 0.0366784
Class 0:
Packet latency average = 16.9954
	minimum = 10
	maximum = 47
	95th percentile = 21.5
	99th percentile = 24.5
Network latency average = 16.9954
	minimum = 10
	maximum = 47
	95th percentile = 21.5
	99th percentile = 24.5
Slowest packet = 718409
Flit latency average = 16.9954
	minimum = 10
	maximum = 47
	95th percentile = 21.5
	99th percentile = 24.5
Slowest flit = 718409
Fragmentation average = 0
	minimum = 0
	maximum = 0
Injected packet rate average = 0.532828
	minimum = 0.527882 (at node 29)
	maximum = 0.537275 (at node 24)
Accepted packet rate average = 0.53259
	minimum = 0.527686 (at node 11)
	maximum = 0.537176 (at node 18)
Injected flit rate average = 0.532828
	minimum = 0.527882 (at node 29)
	maximum = 0.537275 (at node 24)
Accepted flit rate average= 0.53259
	minimum = 0.527686 (at node 11)
	maximum = 0.537176 (at node 18)
Injected packet length average = 1
Accepted packet length average = 1
Total in-flight flits = 502 (502 measured)
====== Peak Queue Occupancy Statistics (Absolute Max) ======
  Overall Max VC Occupancy = 1
  Overall Max Buffer Occupancy = 5
latency change    = 0.00312447
throughput change = 0.0312635
Draining all recorded packets ...
Draining remaining packets ...
Time taken is 57050 cycles
====== Overall Traffic Statistics ======
====== Traffic class 0 ======
Packet latency average = 16.996 (1 samples)
	minimum = 10 (1 samples)
	maximum = 47 (1 samples)
Network latency average = 16.996 (1 samples)
	minimum = 10 (1 samples)
	maximum = 47 (1 samples)
Flit latency average = 16.9963 (1 samples)
	minimum = 10 (1 samples)
	maximum = 47 (1 samples)
Fragmentation average = 0 (1 samples)
	minimum = 0 (1 samples)
	maximum = 0 (1 samples)
Injected packet rate average = 0.532828 (1 samples)
	minimum = 0.527882 (1 samples)
	maximum = 0.537275 (1 samples)
Accepted packet rate average = 0.53259 (1 samples)
	minimum = 0.527686 (1 samples)
	maximum = 0.537176 (1 samples)
Injected flit rate average = 0.532828 (1 samples)
	minimum = 0.527882 (1 samples)
	maximum = 0.537275 (1 samples)
Accepted flit rate average = 0.53259 (1 samples)
	minimum = 0.527686 (1 samples)
	maximum = 0.537176 (1 samples)
Injected packet size average = 1 (1 samples)
Accepted packet size average = 1 (1 samples)
Hops average = 3.44343 (1 samples)
Total run time 28.8108
====== Observed Edge Statistics ======
edge_capacity = 1
Edge (0 -> 1) dst_input_port=2 max_buffer_ratio=1 buffer_over_90_fraction=0.0354538 buffer_full_fraction=0.0354538 max_full_streak=4 edge_capacity=0.444444 max_edge_load=0.181 max_edge_utilization=0.40725 total_traversals=6151 buffer_exploded=1 load_exceeded_capacity=0
Edge (0 -> 2) dst_input_port=2 max_buffer_ratio=1 buffer_over_90_fraction=0.00990759 buffer_full_fraction=0.00990759 max_full_streak=3 edge_capacity=0.444444 max_edge_load=0.182 max_edge_utilization=0.4095 total_traversals=6149 buffer_exploded=1 load_exceeded_capacity=0
Edge (0 -> 3) dst_input_port=2 max_buffer_ratio=1 buffer_over_90_fraction=0.0123026 buffer_full_fraction=0.0123026 max_full_streak=5 edge_capacity=0.444444 max_edge_load=0.183 max_edge_utilization=0.41175 total_traversals=6184 buffer_exploded=1 load_exceeded_capacity=0
Edge (0 -> 4) dst_input_port=2 max_buffer_ratio=1 buffer_over_90_fraction=0.0189182 buffer_full_fraction=0.0189182 max_full_streak=4 edge_capacity=0.444444 max_edge_load=0.182 max_edge_utilization=0.4095 total_traversals=6166 buffer_exploded=1 load_exceeded_capacity=0
Edge (0 -> 5) dst_input_port=2 max_buffer_ratio=1 buffer_over_90_fraction=0.0187895 buffer_full_fraction=0.0187895 max_full_streak=4 edge_capacity=0.444444 max_edge_load=0.181 max_edge_utilization=0.40725 total_traversals=6160 buffer_exploded=1 load_exceeded_capacity=0
Edge (0 -> 6) dst_input_port=2 max_buffer_ratio=1 buffer_over_90_fraction=0.0247535 buffer_full_fraction=0.0247535 max_full_streak=5 edge_capacity=0.444444 max_edge_load=0.183 max_edge_utilization=0.41175 total_traversals=6148 buffer_exploded=1 load_exceeded_capacity=0
Edge (0 -> 7) dst_input_port=2 max_buffer_ratio=1 buffer_over_90_fraction=0.0441339 buffer_full_fraction=0.0441339 max_full_streak=6 edge_capacity=0.444444 max_edge_load=0.181 max_edge_utilization=0.40725 total_traversals=6135 buffer_exploded=1 load_exceeded_capacity=0
Edge (0 -> 8) dst_input_port=2 max_buffer_ratio=1 buffer_over_90_fraction=0.0375728 buffer_full_fraction=0.0375728 max_full_streak=7 edge_capacity=0.444444 max_edge_load=0.181 max_edge_utilization=0.40725 total_traversals=6160 buffer_exploded=1 load_exceeded_capacity=0
Edge (0 -> 9) dst_input_port=0 max_buffer_ratio=1 buffer_over_90_fraction=0.000455828 buffer_full_fraction=0.000455828 max_full_streak=1 edge_capacity=1 max_edge_load=0.27 max_edge_utilization=0.27 total_traversals=9237 buffer_exploded=1 load_exceeded_capacity=0
Edge (0 -> 18) dst_input_port=0 max_buffer_ratio=1 buffer_over_90_fraction=0.00157795 buffer_full_fraction=0.00157795 max_full_streak=2 edge_capacity=1 max_edge_load=0.271 max_edge_utilization=0.271 total_traversals=9215 buffer_exploded=1 load_exceeded_capacity=0
Edge (1 -> 0) dst_input_port=2 max_buffer_ratio=1 buffer_over_90_fraction=0.0268588 buffer_full_fraction=0.0268588 max_full_streak=7 edge_capacity=0.444444 max_edge_load=0.181 max_edge_utilization=0.40725 total_traversals=6182 buffer_exploded=1 load_exceeded_capacity=0
Edge (1 -> 2) dst_input_port=3 max_buffer_ratio=1 buffer_over_90_fraction=0.0185708 buffer_full_fraction=0.0185708 max_full_streak=3 edge_capacity=0.444444 max_edge_load=0.18 max_edge_utilization=0.405 total_traversals=6147 buffer_exploded=1 load_exceeded_capacity=0
Edge (1 -> 3) dst_input_port=3 max_buffer_ratio=1 buffer_over_90_fraction=0.0502264 buffer_full_fraction=0.0502264 max_full_streak=5 edge_capacity=0.444444 max_edge_load=0.18 max_edge_utilization=0.405 total_traversals=6182 buffer_exploded=1 load_exceeded_capacity=0
Edge (1 -> 4) dst_input_port=3 max_buffer_ratio=1 buffer_over_90_fraction=0.0138339 buffer_full_fraction=0.0138339 max_full_streak=6 edge_capacity=0.444444 max_edge_load=0.183 max_edge_utilization=0.41175 total_traversals=6164 buffer_exploded=1 load_exceeded_capacity=0
Edge (1 -> 5) dst_input_port=3 max_buffer_ratio=1 buffer_over_90_fraction=0.0191616 buffer_full_fraction=0.0191616 max_full_streak=3 edge_capacity=0.444444 max_edge_load=0.181 max_edge_utilization=0.40725 total_traversals=6158 buffer_exploded=1 load_exceeded_capacity=0
Edge (1 -> 6) dst_input_port=3 max_buffer_ratio=1 buffer_over_90_fraction=0.0270598 buffer_full_fraction=0.0270598 max_full_streak=4 edge_capacity=0.444444 max_edge_load=0.181 max_edge_utilization=0.40725 total_traversals=6147 buffer_exploded=1 load_exceeded_capacity=0
Edge (1 -> 7) dst_input_port=3 max_buffer_ratio=1 buffer_over_90_fraction=0.0271674 buffer_full_fraction=0.0271674 max_full_streak=4 edge_capacity=0.444444 max_edge_load=0.182 max_edge_utilization=0.4095 total_traversals=6134 buffer_exploded=1 load_exceeded_capacity=0
Edge (1 -> 8) dst_input_port=3 max_buffer_ratio=1 buffer_over_90_fraction=0.0321568 buffer_full_fraction=0.0321568 max_full_streak=5 edge_capacity=0.444444 max_edge_load=0.18 max_edge_utilization=0.405 total_traversals=6158 buffer_exploded=1 load_exceeded_capacity=0
Edge (1 -> 10) dst_input_port=0 max_buffer_ratio=1 buffer_over_90_fraction=0.00106957 buffer_full_fraction=0.00106957 max_full_streak=1 edge_capacity=1 max_edge_load=0.27 max_edge_utilization=0.27 total_traversals=9237 buffer_exploded=1 load_exceeded_capacity=0
Edge (1 -> 19) dst_input_port=0 max_buffer_ratio=1 buffer_over_90_fraction=0.000965132 buffer_full_fraction=0.000965132 max_full_streak=1 edge_capacity=1 max_edge_load=0.272 max_edge_utilization=0.272 total_traversals=9215 buffer_exploded=1 load_exceeded_capacity=0
Edge (2 -> 0) dst_input_port=3 max_buffer_ratio=1 buffer_over_90_fraction=0.0314177 buffer_full_fraction=0.0314177 max_full_streak=3 edge_capacity=0.444444 max_edge_load=0.181 max_edge_utilization=0.40725 total_traversals=6162 buffer_exploded=1 load_exceeded_capacity=0
Edge (2 -> 1) dst_input_port=3 max_buffer_ratio=1 buffer_over_90_fraction=0.0295242 buffer_full_fraction=0.0295242 max_full_streak=4 edge_capacity=0.444444 max_edge_load=0.18 max_edge_utilization=0.405 total_traversals=6129 buffer_exploded=1 load_exceeded_capacity=0
Edge (2 -> 3) dst_input_port=4 max_buffer_ratio=1 buffer_over_90_fraction=0.0441749 buffer_full_fraction=0.0441749 max_full_streak=4 edge_capacity=0.444444 max_edge_load=0.181 max_edge_utilization=0.40725 total_traversals=6162 buffer_exploded=1 load_exceeded_capacity=0
Edge (2 -> 4) dst_input_port=4 max_buffer_ratio=1 buffer_over_90_fraction=0.0223033 buffer_full_fraction=0.0223033 max_full_streak=3 edge_capacity=0.444444 max_edge_load=0.181 max_edge_utilization=0.40725 total_traversals=6144 buffer_exploded=1 load_exceeded_capacity=0
Edge (2 -> 5) dst_input_port=4 max_buffer_ratio=1 buffer_over_90_fraction=0.0128102 buffer_full_fraction=0.0128102 max_full_streak=3 edge_capacity=0.444444 max_edge_load=0.182 max_edge_utilization=0.4095 total_traversals=6137 buffer_exploded=1 load_exceeded_capacity=0
Edge (2 -> 6) dst_input_port=4 max_buffer_ratio=1 buffer_over_90_fraction=0.0309702 buffer_full_fraction=0.0309702 max_full_streak=4 edge_capacity=0.444444 max_edge_load=0.182 max_edge_utilization=0.4095 total_traversals=6126 buffer_exploded=1 load_exceeded_capacity=0
Edge (2 -> 7) dst_input_port=4 max_buffer_ratio=1 buffer_over_90_fraction=0.0178872 buffer_full_fraction=0.0178872 max_full_streak=4 edge_capacity=0.444444 max_edge_load=0.182 max_edge_utilization=0.4095 total_traversals=6113 buffer_exploded=1 load_exceeded_capacity=0
Edge (2 -> 8) dst_input_port=4 max_buffer_ratio=1 buffer_over_90_fraction=0.0201215 buffer_full_fraction=0.0201215 max_full_streak=4 edge_capacity=0.444444 max_edge_load=0.18 max_edge_utilization=0.405 total_traversals=6138 buffer_exploded=1 load_exceeded_capacity=0
Edge (2 -> 11) dst_input_port=0 max_buffer_ratio=1 buffer_over_90_fraction=0.000613917 buffer_full_fraction=0.000613917 max_full_streak=1 edge_capacity=1 max_edge_load=0.27 max_edge_utilization=0.27 total_traversals=9237 buffer_exploded=1 load_exceeded_capacity=0
Edge (2 -> 20) dst_input_port=0 max_buffer_ratio=1 buffer_over_90_fraction=0.00212355 buffer_full_fraction=0.00212355 max_full_streak=2 edge_capacity=1 max_edge_load=0.272 max_edge_utilization=0.272 total_traversals=9215 buffer_exploded=1 load_exceeded_capacity=0
Edge (3 -> 0) dst_input_port=4 max_buffer_ratio=1 buffer_over_90_fraction=0.034242 buffer_full_fraction=0.034242 max_full_streak=5 edge_capacity=0.444444 max_edge_load=0.181 max_edge_utilization=0.40725 total_traversals=6149 buffer_exploded=1 load_exceeded_capacity=0
Edge (3 -> 1) dst_input_port=4 max_buffer_ratio=1 buffer_over_90_fraction=0.0355482 buffer_full_fraction=0.0355482 max_full_streak=4 edge_capacity=0.444444 max_edge_load=0.179 max_edge_utilization=0.40275 total_traversals=6116 buffer_exploded=1 load_exceeded_capacity=0
Edge (3 -> 2) dst_input_port=4 max_buffer_ratio=1 buffer_over_90_fraction=0.0411199 buffer_full_fraction=0.0411199 max_full_streak=7 edge_capacity=0.444444 max_edge_load=0.18 max_edge_utilization=0.405 total_traversals=6114 buffer_exploded=1 load_exceeded_capacity=0
Edge (3 -> 4) dst_input_port=5 max_buffer_ratio=1 buffer_over_90_fraction=0.0149063 buffer_full_fraction=0.0149063 max_full_streak=3 edge_capacity=0.444444 max_edge_load=0.182 max_edge_utilization=0.4095 total_traversals=6131 buffer_exploded=1 load_exceeded_capacity=0
Edge (3 -> 5) dst_input_port=5 max_buffer_ratio=1 buffer_over_90_fraction=0.0338992 buffer_full_fraction=0.0338992 max_full_streak=4 edge_capacity=0.444444 max_edge_load=0.182 max_edge_utilization=0.4095 total_traversals=6125 buffer_exploded=1 load_exceeded_capacity=0
Edge (3 -> 6) dst_input_port=5 max_buffer_ratio=1 buffer_over_90_fraction=0.00943678 buffer_full_fraction=0.00943678 max_full_streak=6 edge_capacity=0.444444 max_edge_load=0.182 max_edge_utilization=0.4095 total_traversals=6114 buffer_exploded=1 load_exceeded_capacity=0
Edge (3 -> 7) dst_input_port=5 max_buffer_ratio=1 buffer_over_90_fraction=0.0315485 buffer_full_fraction=0.0315485 max_full_streak=4 edge_capacity=0.444444 max_edge_load=0.181 max_edge_utilization=0.40725 total_traversals=6101 buffer_exploded=1 load_exceeded_capacity=0
Edge (3 -> 8) dst_input_port=5 max_buffer_ratio=1 buffer_over_90_fraction=0.0367867 buffer_full_fraction=0.0367867 max_full_streak=4 edge_capacity=0.444444 max_edge_load=0.181 max_edge_utilization=0.40725 total_traversals=6125 buffer_exploded=1 load_exceeded_capacity=0
Edge (3 -> 12) dst_input_port=0 max_buffer_ratio=1 buffer_over_90_fraction=0.000298267 buffer_full_fraction=0.000298267 max_full_streak=1 edge_capacity=1 max_edge_load=0.27 max_edge_utilization=0.27 total_traversals=9236 buffer_exploded=1 load_exceeded_capacity=0
Edge (3 -> 21) dst_input_port=0 max_buffer_ratio=1 buffer_over_90_fraction=0.00107066 buffer_full_fraction=0.00107066 max_full_streak=1 edge_capacity=1 max_edge_load=0.273 max_edge_utilization=0.273 total_traversals=9215 buffer_exploded=1 load_exceeded_capacity=0
Edge (4 -> 0) dst_input_port=5 max_buffer_ratio=1 buffer_over_90_fraction=0.0130077 buffer_full_fraction=0.0130077 max_full_streak=4 edge_capacity=0.444444 max_edge_load=0.182 max_edge_utilization=0.4095 total_traversals=6164 buffer_exploded=1 load_exceeded_capacity=0
Edge (4 -> 1) dst_input_port=5 max_buffer_ratio=1 buffer_over_90_fraction=0.0246336 buffer_full_fraction=0.0246336 max_full_streak=4 edge_capacity=0.444444 max_edge_load=0.18 max_edge_utilization=0.405 total_traversals=6131 buffer_exploded=1 load_exceeded_capacity=0
Edge (4 -> 2) dst_input_port=5 max_buffer_ratio=1 buffer_over_90_fraction=0.0257827 buffer_full_fraction=0.0257827 max_full_streak=4 edge_capacity=0.444444 max_edge_load=0.181 max_edge_utilization=0.40725 total_traversals=6129 buffer_exploded=1 load_exceeded_capacity=0
Edge (4 -> 3) dst_input_port=5 max_buffer_ratio=1 buffer_over_90_fraction=0.041913 buffer_full_fraction=0.041913 max_full_streak=5 edge_capacity=0.444444 max_edge_load=0.183 max_edge_utilization=0.41175 total_traversals=6163 buffer_exploded=1 load_exceeded_capacity=0
Edge (4 -> 5) dst_input_port=6 max_buffer_ratio=1 buffer_over_90_fraction=0.0311512 buffer_full_fraction=0.0311512 max_full_streak=3 edge_capacity=0.444444 max_edge_load=0.183 max_edge_utilization=0.41175 total_traversals=6139 buffer_exploded=1 load_exceeded_capacity=0
Edge (4 -> 6) dst_input_port=6 max_buffer_ratio=1 buffer_over_90_fraction=0.0263394 buffer_full_fraction=0.0263394 max_full_streak=4 edge_capacity=0.444444 max_edge_load=0.183 max_edge_utilization=0.41175 total_traversals=6128 buffer_exploded=1 load_exceeded_capacity=0
Edge (4 -> 7) dst_input_port=6 max_buffer_ratio=1 buffer_over_90_fraction=0.0201064 buffer_full_fraction=0.0201064 max_full_streak=4 edge_capacity=0.444444 max_edge_load=0.181 max_edge_utilization=0.40725 total_traversals=6115 buffer_exploded=1 load_exceeded_capacity=0
Edge (4 -> 8) dst_input_port=6 max_buffer_ratio=1 buffer_over_90_fraction=0.0242909 buffer_full_fraction=0.0242909 max_full_streak=3 edge_capacity=0.444444 max_edge_load=0.182 max_edge_utilization=0.4095 total_traversals=6140 buffer_exploded=1 load_exceeded_capacity=0
Edge (4 -> 13) dst_input_port=0 max_buffer_ratio=1 buffer_over_90_fraction=0.000579161 buffer_full_fraction=0.000579161 max_full_streak=1 edge_capacity=1 max_edge_load=0.27 max_edge_utilization=0.27 total_traversals=9236 buffer_exploded=1 load_exceeded_capacity=0
Edge (4 -> 22) dst_input_port=0 max_buffer_ratio=1 buffer_over_90_fraction=0.00121112 buffer_full_fraction=0.00121112 max_full_streak=1 edge_capacity=1 max_edge_load=0.273 max_edge_utilization=0.273 total_traversals=9215 buffer_exploded=1 load_exceeded_capacity=0
Edge (5 -> 0) dst_input_port=6 max_buffer_ratio=1 buffer_over_90_fraction=0.0240719 buffer_full_fraction=0.0240719 max_full_streak=3 edge_capacity=0.444444 max_edge_load=0.182 max_edge_utilization=0.4095 total_traversals=6166 buffer_exploded=1 load_exceeded_capacity=0
Edge (5 -> 1) dst_input_port=6 max_buffer_ratio=1 buffer_over_90_fraction=0.0183225 buffer_full_fraction=0.0183225 max_full_streak=3 edge_capacity=0.444444 max_edge_load=0.18 max_edge_utilization=0.405 total_traversals=6133 buffer_exploded=1 load_exceeded_capacity=0
Edge (5 -> 2) dst_input_port=6 max_buffer_ratio=1 buffer_over_90_fraction=0.036326 buffer_full_fraction=0.036326 max_full_streak=4 edge_capacity=0.444444 max_edge_load=0.181 max_edge_utilization=0.40725 total_traversals=6131 buffer_exploded=1 load_exceeded_capacity=0
Edge (5 -> 3) dst_input_port=6 max_buffer_ratio=1 buffer_over_90_fraction=0.0212721 buffer_full_fraction=0.0212721 max_full_streak=4 edge_capacity=0.444444 max_edge_load=0.181 max_edge_utilization=0.40725 total_traversals=6166 buffer_exploded=1 load_exceeded_capacity=0
Edge (5 -> 4) dst_input_port=6 max_buffer_ratio=1 buffer_over_90_fraction=0.0446978 buffer_full_fraction=0.0446978 max_full_streak=6 edge_capacity=0.444444 max_edge_load=0.181 max_edge_utilization=0.40725 total_traversals=6148 buffer_exploded=1 load_exceeded_capacity=0
Edge (5 -> 6) dst_input_port=7 max_buffer_ratio=1 buffer_over_90_fraction=0.0277075 buffer_full_fraction=0.0277075 max_full_streak=4 edge_capacity=0.444444 max_edge_load=0.181 max_edge_utilization=0.40725 total_traversals=6131 buffer_exploded=1 load_exceeded_capacity=0
Edge (5 -> 7) dst_input_port=7 max_buffer_ratio=1 buffer_over_90_fraction=0.0332133 buffer_full_fraction=0.0332133 max_full_streak=9 edge_capacity=0.444444 max_edge_load=0.183 max_edge_utilization=0.41175 total_traversals=6118 buffer_exploded=1 load_exceeded_capacity=0
Edge (5 -> 8) dst_input_port=7 max_buffer_ratio=1 buffer_over_90_fraction=0.0317616 buffer_full_fraction=0.0317616 max_full_streak=3 edge_capacity=0.444444 max_edge_load=0.18 max_edge_utilization=0.405 total_traversals=6142 buffer_exploded=1 load_exceeded_capacity=0
Edge (5 -> 14) dst_input_port=0 max_buffer_ratio=1 buffer_over_90_fraction=0.00222944 buffer_full_fraction=0.00222944 max_full_streak=2 edge_capacity=1 max_edge_load=0.269 max_edge_utilization=0.269 total_traversals=9236 buffer_exploded=1 load_exceeded_capacity=0
Edge (5 -> 23) dst_input_port=0 max_buffer_ratio=1 buffer_over_90_fraction=0.00145721 buffer_full_fraction=0.00145721 max_full_streak=2 edge_capacity=1 max_edge_load=0.273 max_edge_utilization=0.273 total_traversals=9214 buffer_exploded=1 load_exceeded_capacity=0
Edge (6 -> 0) dst_input_port=7 max_buffer_ratio=1 buffer_over_90_fraction=0.00956073 buffer_full_fraction=0.00956073 max_full_streak=5 edge_capacity=0.444444 max_edge_load=0.185 max_edge_utilization=0.41625 total_traversals=6184 buffer_exploded=1 load_exceeded_capacity=0
Edge (6 -> 1) dst_input_port=7 max_buffer_ratio=1 buffer_over_90_fraction=0.0311447 buffer_full_fraction=0.0311447 max_full_streak=6 edge_capacity=0.444444 max_edge_load=0.183 max_edge_utilization=0.41175 total_traversals=6151 buffer_exploded=1 load_exceeded_capacity=0
Edge (6 -> 2) dst_input_port=7 max_buffer_ratio=1 buffer_over_90_fraction=0.0257135 buffer_full_fraction=0.0257135 max_full_streak=5 edge_capacity=0.444444 max_edge_load=0.184 max_edge_utilization=0.414 total_traversals=6149 buffer_exploded=1 load_exceeded_capacity=0
Edge (6 -> 3) dst_input_port=7 max_buffer_ratio=1 buffer_over_90_fraction=0.0252949 buffer_full_fraction=0.0252949 max_full_streak=3 edge_capacity=0.444444 max_edge_load=0.183 max_edge_utilization=0.41175 total_traversals=6183 buffer_exploded=1 load_exceeded_capacity=0
Edge (6 -> 4) dst_input_port=7 max_buffer_ratio=1 buffer_over_90_fraction=0.030613 buffer_full_fraction=0.030613 max_full_streak=5 edge_capacity=0.444444 max_edge_load=0.181 max_edge_utilization=0.40725 total_traversals=6166 buffer_exploded=1 load_exceeded_capacity=0
Edge (6 -> 5) dst_input_port=7 max_buffer_ratio=1 buffer_over_90_fraction=0.031982 buffer_full_fraction=0.031982 max_full_streak=6 edge_capacity=0.444444 max_edge_load=0.181 max_edge_utilization=0.40725 total_traversals=6159 buffer_exploded=1 load_exceeded_capacity=0
Edge (6 -> 7) dst_input_port=8 max_buffer_ratio=1 buffer_over_90_fraction=0.0242407 buffer_full_fraction=0.0242407 max_full_streak=4 edge_capacity=0.444444 max_edge_load=0.18 max_edge_utilization=0.405 total_traversals=6134 buffer_exploded=1 load_exceeded_capacity=0
Edge (6 -> 8) dst_input_port=8 max_buffer_ratio=1 buffer_over_90_fraction=0.0343888 buffer_full_fraction=0.0343888 max_full_streak=4 edge_capacity=0.444444 max_edge_load=0.181 max_edge_utilization=0.40725 total_traversals=6160 buffer_exploded=1 load_exceeded_capacity=0
Edge (6 -> 15) dst_input_port=0 max_buffer_ratio=1 buffer_over_90_fraction=0.00175617 buffer_full_fraction=0.00175617 max_full_streak=1 edge_capacity=1 max_edge_load=0.27 max_edge_utilization=0.27 total_traversals=9236 buffer_exploded=1 load_exceeded_capacity=0
Edge (6 -> 24) dst_input_port=0 max_buffer_ratio=1 buffer_over_90_fraction=0.00128174 buffer_full_fraction=0.00128174 max_full_streak=1 edge_capacity=1 max_edge_load=0.272 max_edge_utilization=0.272 total_traversals=9214 buffer_exploded=1 load_exceeded_capacity=0
Edge (7 -> 0) dst_input_port=8 max_buffer_ratio=1 buffer_over_90_fraction=0.0163561 buffer_full_fraction=0.0163561 max_full_streak=4 edge_capacity=0.444444 max_edge_load=0.181 max_edge_utilization=0.40725 total_traversals=6166 buffer_exploded=1 load_exceeded_capacity=0
Edge (7 -> 1) dst_input_port=8 max_buffer_ratio=1 buffer_over_90_fraction=0.0193262 buffer_full_fraction=0.0193262 max_full_streak=7 edge_capacity=0.444444 max_edge_load=0.182 max_edge_utilization=0.4095 total_traversals=6134 buffer_exploded=1 load_exceeded_capacity=0
Edge (7 -> 2) dst_input_port=8 max_buffer_ratio=1 buffer_over_90_fraction=0.0225754 buffer_full_fraction=0.0225754 max_full_streak=5 edge_capacity=0.444444 max_edge_load=0.182 max_edge_utilization=0.4095 total_traversals=6131 buffer_exploded=1 load_exceeded_capacity=0
Edge (7 -> 3) dst_input_port=8 max_buffer_ratio=1 buffer_over_90_fraction=0.0124561 buffer_full_fraction=0.0124561 max_full_streak=3 edge_capacity=0.444444 max_edge_load=0.181 max_edge_utilization=0.40725 total_traversals=6166 buffer_exploded=1 load_exceeded_capacity=0
Edge (7 -> 4) dst_input_port=8 max_buffer_ratio=1 buffer_over_90_fraction=0.0190934 buffer_full_fraction=0.0190934 max_full_streak=7 edge_capacity=0.444444 max_edge_load=0.181 max_edge_utilization=0.40725 total_traversals=6149 buffer_exploded=1 load_exceeded_capacity=0
Edge (7 -> 5) dst_input_port=8 max_buffer_ratio=1 buffer_over_90_fraction=0.0156401 buffer_full_fraction=0.0156401 max_full_streak=3 edge_capacity=0.444444 max_edge_load=0.181 max_edge_utilization=0.40725 total_traversals=6142 buffer_exploded=1 load_exceeded_capacity=0
Edge (7 -> 6) dst_input_port=8 max_buffer_ratio=1 buffer_over_90_fraction=0.0319453 buffer_full_fraction=0.0319453 max_full_streak=4 edge_capacity=0.444444 max_edge_load=0.182 max_edge_utilization=0.4095 total_traversals=6132 buffer_exploded=1 load_exceeded_capacity=0
Edge (7 -> 8) dst_input_port=9 max_buffer_ratio=1 buffer_over_90_fraction=0.0237485 buffer_full_fraction=0.0237485 max_full_streak=3 edge_capacity=0.444444 max_edge_load=0.18 max_edge_utilization=0.405 total_traversals=6143 buffer_exploded=1 load_exceeded_capacity=0
Edge (7 -> 16) dst_input_port=0 max_buffer_ratio=1 buffer_over_90_fraction=0.0015984 buffer_full_fraction=0.0015984 max_full_streak=1 edge_capacity=1 max_edge_load=0.27 max_edge_utilization=0.27 total_traversals=9235 buffer_exploded=1 load_exceeded_capacity=0
Edge (7 -> 25) dst_input_port=0 max_buffer_ratio=1 buffer_over_90_fraction=0.000860404 buffer_full_fraction=0.000860404 max_full_streak=1 edge_capacity=1 max_edge_load=0.272 max_edge_utilization=0.272 total_traversals=9213 buffer_exploded=1 load_exceeded_capacity=0
Edge (8 -> 0) dst_input_port=9 max_buffer_ratio=1 buffer_over_90_fraction=0.0145161 buffer_full_fraction=0.0145161 max_full_streak=3 edge_capacity=0.444444 max_edge_load=0.185 max_edge_utilization=0.41625 total_traversals=6162 buffer_exploded=1 load_exceeded_capacity=0
Edge (8 -> 1) dst_input_port=9 max_buffer_ratio=1 buffer_over_90_fraction=0.0223544 buffer_full_fraction=0.0223544 max_full_streak=4 edge_capacity=0.444444 max_edge_load=0.181 max_edge_utilization=0.40725 total_traversals=6129 buffer_exploded=1 load_exceeded_capacity=0
Edge (8 -> 2) dst_input_port=9 max_buffer_ratio=1 buffer_over_90_fraction=0.029185 buffer_full_fraction=0.029185 max_full_streak=8 edge_capacity=0.444444 max_edge_load=0.183 max_edge_utilization=0.41175 total_traversals=6127 buffer_exploded=1 load_exceeded_capacity=0
Edge (8 -> 3) dst_input_port=9 max_buffer_ratio=1 buffer_over_90_fraction=0.0175543 buffer_full_fraction=0.0175543 max_full_streak=3 edge_capacity=0.444444 max_edge_load=0.185 max_edge_utilization=0.41625 total_traversals=6162 buffer_exploded=1 load_exceeded_capacity=0
Edge (8 -> 4) dst_input_port=9 max_buffer_ratio=1 buffer_over_90_fraction=0.0100623 buffer_full_fraction=0.0100623 max_full_streak=6 edge_capacity=0.444444 max_edge_load=0.183 max_edge_utilization=0.41175 total_traversals=6145 buffer_exploded=1 load_exceeded_capacity=0
Edge (8 -> 5) dst_input_port=9 max_buffer_ratio=1 buffer_over_90_fraction=0.01211 buffer_full_fraction=0.01211 max_full_streak=3 edge_capacity=0.444444 max_edge_load=0.182 max_edge_utilization=0.4095 total_traversals=6138 buffer_exploded=1 load_exceeded_capacity=0
Edge (8 -> 6) dst_input_port=9 max_buffer_ratio=1 buffer_over_90_fraction=0.00666268 buffer_full_fraction=0.00666268 max_full_streak=3 edge_capacity=0.444444 max_edge_load=0.184 max_edge_utilization=0.414 total_traversals=6127 buffer_exploded=1 load_exceeded_capacity=0
Edge (8 -> 7) dst_input_port=9 max_buffer_ratio=1 buffer_over_90_fraction=0.0295885 buffer_full_fraction=0.0295885 max_full_streak=4 edge_capacity=0.444444 max_edge_load=0.183 max_edge_utilization=0.41175 total_traversals=6113 buffer_exploded=1 load_exceeded_capacity=0
Edge (8 -> 17) dst_input_port=0 max_buffer_ratio=1 buffer_over_90_fraction=0.000298633 buffer_full_fraction=0.000298633 max_full_streak=1 edge_capacity=1 max_edge_load=0.27 max_edge_utilization=0.27 total_traversals=9234 buffer_exploded=1 load_exceeded_capacity=0
Edge (8 -> 26) dst_input_port=0 max_buffer_ratio=1 buffer_over_90_fraction=0.00107136 buffer_full_fraction=0.00107136 max_full_streak=2 edge_capacity=1 max_edge_load=0.272 max_edge_utilization=0.272 total_traversals=9212 buffer_exploded=1 load_exceeded_capacity=0
Edge (9 -> 0) dst_input_port=0 max_buffer_ratio=1 buffer_over_90_fraction=0.000210379 buffer_full_fraction=0.000210379 max_full_streak=1 edge_capacity=1 max_edge_load=0.269 max_edge_utilization=0.269 total_traversals=9194 buffer_exploded=1 load_exceeded_capacity=0
Edge (9 -> 10) dst_input_port=2 max_buffer_ratio=1 buffer_over_90_fraction=0.0194105 buffer_full_fraction=0.0194105 max_full_streak=4 edge_capacity=0.444444 max_edge_load=0.182 max_edge_utilization=0.4095 total_traversals=6157 buffer_exploded=1 load_exceeded_capacity=0
Edge (9 -> 11) dst_input_port=2 max_buffer_ratio=1 buffer_over_90_fraction=0.0181196 buffer_full_fraction=0.0181196 max_full_streak=5 edge_capacity=0.444444 max_edge_load=0.181 max_edge_utilization=0.40725 total_traversals=6111 buffer_exploded=1 load_exceeded_capacity=0
Edge (9 -> 12) dst_input_port=2 max_buffer_ratio=1 buffer_over_90_fraction=0.0187429 buffer_full_fraction=0.0187429 max_full_streak=6 edge_capacity=0.444444 max_edge_load=0.181 max_edge_utilization=0.40725 total_traversals=6134 buffer_exploded=1 load_exceeded_capacity=0
Edge (9 -> 13) dst_input_port=2 max_buffer_ratio=1 buffer_over_90_fraction=0.0365916 buffer_full_fraction=0.0365916 max_full_streak=5 edge_capacity=0.444444 max_edge_load=0.181 max_edge_utilization=0.40725 total_traversals=6138 buffer_exploded=1 load_exceeded_capacity=0
Edge (9 -> 14) dst_input_port=2 max_buffer_ratio=1 buffer_over_90_fraction=0.0203874 buffer_full_fraction=0.0203874 max_full_streak=3 edge_capacity=0.444444 max_edge_load=0.179 max_edge_utilization=0.40275 total_traversals=6138 buffer_exploded=1 load_exceeded_capacity=0
Edge (9 -> 15) dst_input_port=2 max_buffer_ratio=1 buffer_over_90_fraction=0.0298762 buffer_full_fraction=0.0298762 max_full_streak=3 edge_capacity=0.444444 max_edge_load=0.18 max_edge_utilization=0.405 total_traversals=6152 buffer_exploded=1 load_exceeded_capacity=0
Edge (9 -> 16) dst_input_port=2 max_buffer_ratio=1 buffer_over_90_fraction=0.0284392 buffer_full_fraction=0.0284392 max_full_streak=3 edge_capacity=0.444444 max_edge_load=0.18 max_edge_utilization=0.405 total_traversals=6141 buffer_exploded=1 load_exceeded_capacity=0
Edge (9 -> 17) dst_input_port=2 max_buffer_ratio=1 buffer_over_90_fraction=0.0458706 buffer_full_fraction=0.0458706 max_full_streak=5 edge_capacity=0.444444 max_edge_load=0.182 max_edge_utilization=0.4095 total_traversals=6137 buffer_exploded=1 load_exceeded_capacity=0
Edge (9 -> 27) dst_input_port=0 max_buffer_ratio=1 buffer_over_90_fraction=0.00022791 buffer_full_fraction=0.00022791 max_full_streak=1 edge_capacity=1 max_edge_load=0.269 max_edge_utilization=0.269 total_traversals=9200 buffer_exploded=1 load_exceeded_capacity=0
Edge (10 -> 1) dst_input_port=0 max_buffer_ratio=1 buffer_over_90_fraction=0.000806607 buffer_full_fraction=0.000806607 max_full_streak=1 edge_capacity=1 max_edge_load=0.27 max_edge_utilization=0.27 total_traversals=9194 buffer_exploded=1 load_exceeded_capacity=0
Edge (10 -> 9) dst_input_port=2 max_buffer_ratio=1 buffer_over_90_fraction=0.0513463 buffer_full_fraction=0.0513463 max_full_streak=6 edge_capacity=0.444444 max_edge_load=0.18 max_edge_utilization=0.405 total_traversals=6143 buffer_exploded=1 load_exceeded_capacity=0
Edge (10 -> 11) dst_input_port=3 max_buffer_ratio=1 buffer_over_90_fraction=0.0214893 buffer_full_fraction=0.0214893 max_full_streak=4 edge_capacity=0.444444 max_edge_load=0.181 max_edge_utilization=0.40725 total_traversals=6112 buffer_exploded=1 load_exceeded_capacity=0
Edge (10 -> 12) dst_input_port=3 max_buffer_ratio=1 buffer_over_90_fraction=0.0455909 buffer_full_fraction=0.0455909 max_full_streak=5 edge_capacity=0.444444 max_edge_load=0.181 max_edge_utilization=0.40725 total_traversals=6134 buffer_exploded=1 load_exceeded_capacity=0
Edge (10 -> 13) dst_input_port=3 max_buffer_ratio=1 buffer_over_90_fraction=0.0196044 buffer_full_fraction=0.0196044 max_full_streak=5 edge_capacity=0.444444 max_edge_load=0.179 max_edge_utilization=0.40275 total_traversals=6139 buffer_exploded=1 load_exceeded_capacity=0
Edge (10 -> 14) dst_input_port=3 max_buffer_ratio=1 buffer_over_90_fraction=0.0199881 buffer_full_fraction=0.0199881 max_full_streak=3 edge_capacity=0.444444 max_edge_load=0.18 max_edge_utilization=0.405 total_traversals=6139 buffer_exploded=1 load_exceeded_capacity=0
Edge (10 -> 15) dst_input_port=3 max_buffer_ratio=1 buffer_over_90_fraction=0.04958 buffer_full_fraction=0.04958 max_full_streak=6 edge_capacity=0.444444 max_edge_load=0.181 max_edge_utilization=0.40725 total_traversals=6153 buffer_exploded=1 load_exceeded_capacity=0
Edge (10 -> 16) dst_input_port=3 max_buffer_ratio=1 buffer_over_90_fraction=0.0227492 buffer_full_fraction=0.0227492 max_full_streak=4 edge_capacity=0.444444 max_edge_load=0.182 max_edge_utilization=0.4095 total_traversals=6142 buffer_exploded=1 load_exceeded_capacity=0
Edge (10 -> 17) dst_input_port=3 max_buffer_ratio=1 buffer_over_90_fraction=0.034984 buffer_full_fraction=0.034984 max_full_streak=4 edge_capacity=0.444444 max_edge_load=0.179 max_edge_utilization=0.40275 total_traversals=6138 buffer_exploded=1 load_exceeded_capacity=0
Edge (10 -> 28) dst_input_port=0 max_buffer_ratio=1 buffer_over_90_fraction=0.000789031 buffer_full_fraction=0.000789031 max_full_streak=2 edge_capacity=1 max_edge_load=0.268 max_edge_utilization=0.268 total_traversals=9200 buffer_exploded=1 load_exceeded_capacity=0
Edge (11 -> 2) dst_input_port=0 max_buffer_ratio=1 buffer_over_90_fraction=0.00113985 buffer_full_fraction=0.00113985 max_full_streak=2 edge_capacity=1 max_edge_load=0.269 max_edge_utilization=0.269 total_traversals=9194 buffer_exploded=1 load_exceeded_capacity=0
Edge (11 -> 9) dst_input_port=3 max_buffer_ratio=1 buffer_over_90_fraction=0.0178487 buffer_full_fraction=0.0178487 max_full_streak=4 edge_capacity=0.444444 max_edge_load=0.18 max_edge_utilization=0.405 total_traversals=6133 buffer_exploded=1 load_exceeded_capacity=0
Edge (11 -> 10) dst_input_port=3 max_buffer_ratio=1 buffer_over_90_fraction=0.0154823 buffer_full_fraction=0.0154823 max_full_streak=3 edge_capacity=0.444444 max_edge_load=0.18 max_edge_utilization=0.405 total_traversals=6147 buffer_exploded=1 load_exceeded_capacity=0
Edge (11 -> 12) dst_input_port=4 max_buffer_ratio=1 buffer_over_90_fraction=0.0347471 buffer_full_fraction=0.0347471 max_full_streak=6 edge_capacity=0.444444 max_edge_load=0.18 max_edge_utilization=0.405 total_traversals=6123 buffer_exploded=1 load_exceeded_capacity=0
Edge (11 -> 13) dst_input_port=4 max_buffer_ratio=1 buffer_over_90_fraction=0.0119284 buffer_full_fraction=0.0119284 max_full_streak=3 edge_capacity=0.444444 max_edge_load=0.181 max_edge_utilization=0.40725 total_traversals=6129 buffer_exploded=1 load_exceeded_capacity=0
Edge (11 -> 14) dst_input_port=4 max_buffer_ratio=1 buffer_over_90_fraction=0.0176691 buffer_full_fraction=0.0176691 max_full_streak=3 edge_capacity=0.444444 max_edge_load=0.182 max_edge_utilization=0.4095 total_traversals=6129 buffer_exploded=1 load_exceeded_capacity=0
Edge (11 -> 15) dst_input_port=4 max_buffer_ratio=1 buffer_over_90_fraction=0.0241129 buffer_full_fraction=0.0241129 max_full_streak=4 edge_capacity=0.444444 max_edge_load=0.18 max_edge_utilization=0.405 total_traversals=6143 buffer_exploded=1 load_exceeded_capacity=0
Edge (11 -> 16) dst_input_port=4 max_buffer_ratio=1 buffer_over_90_fraction=0.0194558 buffer_full_fraction=0.0194558 max_full_streak=5 edge_capacity=0.444444 max_edge_load=0.182 max_edge_utilization=0.4095 total_traversals=6131 buffer_exploded=1 load_exceeded_capacity=0
Edge (11 -> 17) dst_input_port=4 max_buffer_ratio=1 buffer_over_90_fraction=0.014294 buffer_full_fraction=0.014294 max_full_streak=5 edge_capacity=0.444444 max_edge_load=0.18 max_edge_utilization=0.405 total_traversals=6127 buffer_exploded=1 load_exceeded_capacity=0
Edge (11 -> 29) dst_input_port=0 max_buffer_ratio=1 buffer_over_90_fraction=0.000824359 buffer_full_fraction=0.000824359 max_full_streak=2 edge_capacity=1 max_edge_load=0.269 max_edge_utilization=0.269 total_traversals=9200 buffer_exploded=1 load_exceeded_capacity=0
Edge (12 -> 3) dst_input_port=0 max_buffer_ratio=1 buffer_over_90_fraction=0.00115773 buffer_full_fraction=0.00115773 max_full_streak=1 edge_capacity=1 max_edge_load=0.269 max_edge_utilization=0.269 total_traversals=9194 buffer_exploded=1 load_exceeded_capacity=0
Edge (12 -> 9) dst_input_port=4 max_buffer_ratio=1 buffer_over_90_fraction=0.0397794 buffer_full_fraction=0.0397794 max_full_streak=5 edge_capacity=0.444444 max_edge_load=0.181 max_edge_utilization=0.40725 total_traversals=6162 buffer_exploded=1 load_exceeded_capacity=0
Edge (12 -> 10) dst_input_port=4 max_buffer_ratio=1 buffer_over_90_fraction=0.0218696 buffer_full_fraction=0.0218696 max_full_streak=4 edge_capacity=0.444444 max_edge_load=0.182 max_edge_utilization=0.4095 total_traversals=6176 buffer_exploded=1 load_exceeded_capacity=0
Edge (12 -> 11) dst_input_port=4 max_buffer_ratio=1 buffer_over_90_fraction=0.0406321 buffer_full_fraction=0.0406321 max_full_streak=6 edge_capacity=0.444444 max_edge_load=0.183 max_edge_utilization=0.41175 total_traversals=6131 buffer_exploded=1 load_exceeded_capacity=0
Edge (12 -> 13) dst_input_port=5 max_buffer_ratio=1 buffer_over_90_fraction=0.0359706 buffer_full_fraction=0.0359706 max_full_streak=4 edge_capacity=0.444444 max_edge_load=0.182 max_edge_utilization=0.4095 total_traversals=6157 buffer_exploded=1 load_exceeded_capacity=0
Edge (12 -> 14) dst_input_port=5 max_buffer_ratio=1 buffer_over_90_fraction=0.0238952 buffer_full_fraction=0.0238952 max_full_streak=4 edge_capacity=0.444444 max_edge_load=0.179 max_edge_utilization=0.40275 total_traversals=6157 buffer_exploded=1 load_exceeded_capacity=0
Edge (12 -> 15) dst_input_port=5 max_buffer_ratio=1 buffer_over_90_fraction=0.0032279 buffer_full_fraction=0.0032279 max_full_streak=4 edge_capacity=0.444444 max_edge_load=0.182 max_edge_utilization=0.4095 total_traversals=6172 buffer_exploded=1 load_exceeded_capacity=0
Edge (12 -> 16) dst_input_port=5 max_buffer_ratio=1 buffer_over_90_fraction=0.0228804 buffer_full_fraction=0.0228804 max_full_streak=3 edge_capacity=0.444444 max_edge_load=0.182 max_edge_utilization=0.4095 total_traversals=6160 buffer_exploded=1 load_exceeded_capacity=0
Edge (12 -> 17) dst_input_port=5 max_buffer_ratio=1 buffer_over_90_fraction=0.0334029 buffer_full_fraction=0.0334029 max_full_streak=5 edge_capacity=0.444444 max_edge_load=0.18 max_edge_utilization=0.405 total_traversals=6156 buffer_exploded=1 load_exceeded_capacity=0
Edge (12 -> 30) dst_input_port=0 max_buffer_ratio=1 buffer_over_90_fraction=0.00256122 buffer_full_fraction=0.00256122 max_full_streak=1 edge_capacity=1 max_edge_load=0.269 max_edge_utilization=0.269 total_traversals=9200 buffer_exploded=1 load_exceeded_capacity=0
Edge (13 -> 4) dst_input_port=0 max_buffer_ratio=1 buffer_over_90_fraction=0.00226316 buffer_full_fraction=0.00226316 max_full_streak=1 edge_capacity=1 max_edge_load=0.269 max_edge_utilization=0.269 total_traversals=9194 buffer_exploded=1 load_exceeded_capacity=0
Edge (13 -> 9) dst_input_port=5 max_buffer_ratio=1 buffer_over_90_fraction=0.0192169 buffer_full_fraction=0.0192169 max_full_streak=4 edge_capacity=0.444444 max_edge_load=0.18 max_edge_utilization=0.405 total_traversals=6140 buffer_exploded=1 load_exceeded_capacity=0
Edge (13 -> 10) dst_input_port=5 max_buffer_ratio=1 buffer_over_90_fraction=0.0221649 buffer_full_fraction=0.0221649 max_full_streak=7 edge_capacity=0.444444 max_edge_load=0.18 max_edge_utilization=0.405 total_traversals=6154 buffer_exploded=1 load_exceeded_capacity=0
Edge (13 -> 11) dst_input_port=5 max_buffer_ratio=1 buffer_over_90_fraction=0.0292034 buffer_full_fraction=0.0292034 max_full_streak=3 edge_capacity=0.444444 max_edge_load=0.181 max_edge_utilization=0.40725 total_traversals=6109 buffer_exploded=1 load_exceeded_capacity=0
Edge (13 -> 12) dst_input_port=5 max_buffer_ratio=1 buffer_over_90_fraction=0.0319078 buffer_full_fraction=0.0319078 max_full_streak=4 edge_capacity=0.444444 max_edge_load=0.181 max_edge_utilization=0.40725 total_traversals=6130 buffer_exploded=1 load_exceeded_capacity=0
Edge (13 -> 14) dst_input_port=6 max_buffer_ratio=1 buffer_over_90_fraction=0.0236741 buffer_full_fraction=0.0236741 max_full_streak=3 edge_capacity=0.444444 max_edge_load=0.183 max_edge_utilization=0.41175 total_traversals=6135 buffer_exploded=1 load_exceeded_capacity=0
Edge (13 -> 15) dst_input_port=6 max_buffer_ratio=1 buffer_over_90_fraction=0.0220509 buffer_full_fraction=0.0220509 max_full_streak=4 edge_capacity=0.444444 max_edge_load=0.181 max_edge_utilization=0.40725 total_traversals=6149 buffer_exploded=1 load_exceeded_capacity=0
Edge (13 -> 16) dst_input_port=6 max_buffer_ratio=1 buffer_over_90_fraction=0.0216586 buffer_full_fraction=0.0216586 max_full_streak=3 edge_capacity=0.444444 max_edge_load=0.182 max_edge_utilization=0.4095 total_traversals=6138 buffer_exploded=1 load_exceeded_capacity=0
Edge (13 -> 17) dst_input_port=6 max_buffer_ratio=1 buffer_over_90_fraction=0.0357212 buffer_full_fraction=0.0357212 max_full_streak=3 edge_capacity=0.444444 max_edge_load=0.181 max_edge_utilization=0.40725 total_traversals=6134 buffer_exploded=1 load_exceeded_capacity=0
Edge (13 -> 31) dst_input_port=0 max_buffer_ratio=1 buffer_over_90_fraction=0.00173715 buffer_full_fraction=0.00173715 max_full_streak=1 edge_capacity=1 max_edge_load=0.269 max_edge_utilization=0.269 total_traversals=9199 buffer_exploded=1 load_exceeded_capacity=0
Edge (14 -> 5) dst_input_port=0 max_buffer_ratio=1 buffer_over_90_fraction=0.000614164 buffer_full_fraction=0.000614164 max_full_streak=1 edge_capacity=1 max_edge_load=0.269 max_edge_utilization=0.269 total_traversals=9193 buffer_exploded=1 load_exceeded_capacity=0
Edge (14 -> 9) dst_input_port=6 max_buffer_ratio=1 buffer_over_90_fraction=0.0278557 buffer_full_fraction=0.0278557 max_full_streak=3 edge_capacity=0.444444 max_edge_load=0.179 max_edge_utilization=0.40275 total_traversals=6144 buffer_exploded=1 load_exceeded_capacity=0
Edge (14 -> 10) dst_input_port=6 max_buffer_ratio=1 buffer_over_90_fraction=0.0242469 buffer_full_fraction=0.0242469 max_full_streak=3 edge_capacity=0.444444 max_edge_load=0.18 max_edge_utilization=0.405 total_traversals=6158 buffer_exploded=1 load_exceeded_capacity=0
Edge (14 -> 11) dst_input_port=6 max_buffer_ratio=1 buffer_over_90_fraction=0.0180896 buffer_full_fraction=0.0180896 max_full_streak=4 edge_capacity=0.444444 max_edge_load=0.181 max_edge_utilization=0.40725 total_traversals=6112 buffer_exploded=1 load_exceeded_capacity=0
Edge (14 -> 12) dst_input_port=6 max_buffer_ratio=1 buffer_over_90_fraction=0.0131997 buffer_full_fraction=0.0131997 max_full_streak=3 edge_capacity=0.444444 max_edge_load=0.182 max_edge_utilization=0.4095 total_traversals=6134 buffer_exploded=1 load_exceeded_capacity=0
Edge (14 -> 13) dst_input_port=6 max_buffer_ratio=1 buffer_over_90_fraction=0.0477737 buffer_full_fraction=0.0477737 max_full_streak=5 edge_capacity=0.444444 max_edge_load=0.183 max_edge_utilization=0.41175 total_traversals=6139 buffer_exploded=1 load_exceeded_capacity=0
Edge (14 -> 15) dst_input_port=7 max_buffer_ratio=1 buffer_over_90_fraction=0.0184837 buffer_full_fraction=0.0184837 max_full_streak=3 edge_capacity=0.444444 max_edge_load=0.182 max_edge_utilization=0.4095 total_traversals=6152 buffer_exploded=1 load_exceeded_capacity=0
Edge (14 -> 16) dst_input_port=7 max_buffer_ratio=1 buffer_over_90_fraction=0.0160812 buffer_full_fraction=0.0160812 max_full_streak=3 edge_capacity=0.444444 max_edge_load=0.181 max_edge_utilization=0.40725 total_traversals=6142 buffer_exploded=1 load_exceeded_capacity=0
Edge (14 -> 17) dst_input_port=7 max_buffer_ratio=1 buffer_over_90_fraction=0.0264239 buffer_full_fraction=0.0264239 max_full_streak=3 edge_capacity=0.444444 max_edge_load=0.181 max_edge_utilization=0.40725 total_traversals=6138 buffer_exploded=1 load_exceeded_capacity=0
Edge (14 -> 32) dst_input_port=0 max_buffer_ratio=1 buffer_over_90_fraction=0.0013514 buffer_full_fraction=0.0013514 max_full_streak=2 edge_capacity=1 max_edge_load=0.269 max_edge_utilization=0.269 total_traversals=9199 buffer_exploded=1 load_exceeded_capacity=0
Edge (15 -> 6) dst_input_port=0 max_buffer_ratio=1 buffer_over_90_fraction=0.000438766 buffer_full_fraction=0.000438766 max_full_streak=1 edge_capacity=1 max_edge_load=0.27 max_edge_utilization=0.27 total_traversals=9193 buffer_exploded=1 load_exceeded_capacity=0
Edge (15 -> 9) dst_input_port=7 max_buffer_ratio=1 buffer_over_90_fraction=0.00720534 buffer_full_fraction=0.00720534 max_full_streak=3 edge_capacity=0.444444 max_edge_load=0.18 max_edge_utilization=0.405 total_traversals=6153 buffer_exploded=1 load_exceeded_capacity=0
Edge (15 -> 10) dst_input_port=7 max_buffer_ratio=1 buffer_over_90_fraction=0.0312516 buffer_full_fraction=0.0312516 max_full_streak=3 edge_capacity=0.444444 max_edge_load=0.181 max_edge_utilization=0.40725 total_traversals=6166 buffer_exploded=1 load_exceeded_capacity=0
Edge (15 -> 11) dst_input_port=7 max_buffer_ratio=1 buffer_over_90_fraction=0.0314706 buffer_full_fraction=0.0314706 max_full_streak=4 edge_capacity=0.444444 max_edge_load=0.182 max_edge_utilization=0.4095 total_traversals=6120 buffer_exploded=1 load_exceeded_capacity=0
Edge (15 -> 12) dst_input_port=7 max_buffer_ratio=1 buffer_over_90_fraction=0.041188 buffer_full_fraction=0.041188 max_full_streak=4 edge_capacity=0.444444 max_edge_load=0.18 max_edge_utilization=0.405 total_traversals=6142 buffer_exploded=1 load_exceeded_capacity=0
Edge (15 -> 13) dst_input_port=7 max_buffer_ratio=1 buffer_over_90_fraction=0.0468031 buffer_full_fraction=0.0468031 max_full_streak=8 edge_capacity=0.444444 max_edge_load=0.181 max_edge_utilization=0.40725 total_traversals=6147 buffer_exploded=1 load_exceeded_capacity=0
Edge (15 -> 14) dst_input_port=7 max_buffer_ratio=1 buffer_over_90_fraction=0.0456271 buffer_full_fraction=0.0456271 max_full_streak=10 edge_capacity=0.444444 max_edge_load=0.181 max_edge_utilization=0.40725 total_traversals=6148 buffer_exploded=1 load_exceeded_capacity=0
Edge (15 -> 16) dst_input_port=8 max_buffer_ratio=1 buffer_over_90_fraction=0.0137354 buffer_full_fraction=0.0137354 max_full_streak=3 edge_capacity=0.444444 max_edge_load=0.181 max_edge_utilization=0.40725 total_traversals=6151 buffer_exploded=1 load_exceeded_capacity=0
Edge (15 -> 17) dst_input_port=8 max_buffer_ratio=1 buffer_over_90_fraction=0.0339415 buffer_full_fraction=0.0339415 max_full_streak=6 edge_capacity=0.444444 max_edge_load=0.18 max_edge_utilization=0.405 total_traversals=6147 buffer_exploded=1 load_exceeded_capacity=0
Edge (15 -> 33) dst_input_port=0 max_buffer_ratio=1 buffer_over_90_fraction=0.000140422 buffer_full_fraction=0.000140422 max_full_streak=1 edge_capacity=1 max_edge_load=0.269 max_edge_utilization=0.269 total_traversals=9199 buffer_exploded=1 load_exceeded_capacity=0
Edge (16 -> 7) dst_input_port=0 max_buffer_ratio=1 buffer_over_90_fraction=0.000719892 buffer_full_fraction=0.000719892 max_full_streak=1 edge_capacity=1 max_edge_load=0.27 max_edge_utilization=0.27 total_traversals=9192 buffer_exploded=1 load_exceeded_capacity=0
Edge (16 -> 9) dst_input_port=8 max_buffer_ratio=1 buffer_over_90_fraction=0.0110967 buffer_full_fraction=0.0110967 max_full_streak=3 edge_capacity=0.444444 max_edge_load=0.18 max_edge_utilization=0.405 total_traversals=6145 buffer_exploded=1 load_exceeded_capacity=0
Edge (16 -> 10) dst_input_port=8 max_buffer_ratio=1 buffer_over_90_fraction=0.0242196 buffer_full_fraction=0.0242196 max_full_streak=3 edge_capacity=0.444444 max_edge_load=0.18 max_edge_utilization=0.405 total_traversals=6159 buffer_exploded=1 load_exceeded_capacity=0
Edge (16 -> 11) dst_input_port=8 max_buffer_ratio=1 buffer_over_90_fraction=0.0168719 buffer_full_fraction=0.0168719 max_full_streak=3 edge_capacity=0.444444 max_edge_load=0.182 max_edge_utilization=0.4095 total_traversals=6113 buffer_exploded=1 load_exceeded_capacity=0
Edge (16 -> 12) dst_input_port=8 max_buffer_ratio=1 buffer_over_90_fraction=0.0462783 buffer_full_fraction=0.0462783 max_full_streak=4 edge_capacity=0.444444 max_edge_load=0.179 max_edge_utilization=0.40275 total_traversals=6135 buffer_exploded=1 load_exceeded_capacity=0
Edge (16 -> 13) dst_input_port=8 max_buffer_ratio=1 buffer_over_90_fraction=0.0373243 buffer_full_fraction=0.0373243 max_full_streak=5 edge_capacity=0.444444 max_edge_load=0.181 max_edge_utilization=0.40725 total_traversals=6140 buffer_exploded=1 load_exceeded_capacity=0
Edge (16 -> 14) dst_input_port=8 max_buffer_ratio=1 buffer_over_90_fraction=0.0149707 buffer_full_fraction=0.0149707 max_full_streak=3 edge_capacity=0.444444 max_edge_load=0.179 max_edge_utilization=0.40275 total_traversals=6140 buffer_exploded=1 load_exceeded_capacity=0
Edge (16 -> 15) dst_input_port=8 max_buffer_ratio=1 buffer_over_90_fraction=0.0224133 buffer_full_fraction=0.0224133 max_full_streak=3 edge_capacity=0.444444 max_edge_load=0.18 max_edge_utilization=0.405 total_traversals=6154 buffer_exploded=1 load_exceeded_capacity=0
Edge (16 -> 17) dst_input_port=9 max_buffer_ratio=1 buffer_over_90_fraction=0.0166479 buffer_full_fraction=0.0166479 max_full_streak=3 edge_capacity=0.444444 max_edge_load=0.179 max_edge_utilization=0.40275 total_traversals=6138 buffer_exploded=1 load_exceeded_capacity=0
Edge (16 -> 34) dst_input_port=0 max_buffer_ratio=1 buffer_over_90_fraction=0.000158017 buffer_full_fraction=0.000158017 max_full_streak=1 edge_capacity=1 max_edge_load=0.268 max_edge_utilization=0.268 total_traversals=9199 buffer_exploded=1 load_exceeded_capacity=0
Edge (17 -> 8) dst_input_port=0 max_buffer_ratio=1 buffer_over_90_fraction=0.000895507 buffer_full_fraction=0.000895507 max_full_streak=2 edge_capacity=1 max_edge_load=0.27 max_edge_utilization=0.27 total_traversals=9192 buffer_exploded=1 load_exceeded_capacity=0
Edge (17 -> 9) dst_input_port=9 max_buffer_ratio=1 buffer_over_90_fraction=0.0304502 buffer_full_fraction=0.0304502 max_full_streak=4 edge_capacity=0.444444 max_edge_load=0.179 max_edge_utilization=0.40275 total_traversals=6145 buffer_exploded=1 load_exceeded_capacity=0
Edge (17 -> 10) dst_input_port=9 max_buffer_ratio=1 buffer_over_90_fraction=0.0246623 buffer_full_fraction=0.0246623 max_full_streak=3 edge_capacity=0.444444 max_edge_load=0.18 max_edge_utilization=0.405 total_traversals=6158 buffer_exploded=1 load_exceeded_capacity=0
Edge (17 -> 11) dst_input_port=9 max_buffer_ratio=1 buffer_over_90_fraction=0.0380429 buffer_full_fraction=0.0380429 max_full_streak=3 edge_capacity=0.444444 max_edge_load=0.181 max_edge_utilization=0.40725 total_traversals=6113 buffer_exploded=1 load_exceeded_capacity=0
Edge (17 -> 12) dst_input_port=9 max_buffer_ratio=1 buffer_over_90_fraction=0.0394326 buffer_full_fraction=0.0394326 max_full_streak=4 edge_capacity=0.444444 max_edge_load=0.18 max_edge_utilization=0.405 total_traversals=6135 buffer_exploded=1 load_exceeded_capacity=0
Edge (17 -> 13) dst_input_port=9 max_buffer_ratio=1 buffer_over_90_fraction=0.0238133 buffer_full_fraction=0.0238133 max_full_streak=4 edge_capacity=0.444444 max_edge_load=0.182 max_edge_utilization=0.4095 total_traversals=6140 buffer_exploded=1 load_exceeded_capacity=0
Edge (17 -> 14) dst_input_port=9 max_buffer_ratio=1 buffer_over_90_fraction=0.0188646 buffer_full_fraction=0.0188646 max_full_streak=3 edge_capacity=0.444444 max_edge_load=0.181 max_edge_utilization=0.40725 total_traversals=6140 buffer_exploded=1 load_exceeded_capacity=0
Edge (17 -> 15) dst_input_port=9 max_buffer_ratio=1 buffer_over_90_fraction=0.0116839 buffer_full_fraction=0.0116839 max_full_streak=3 edge_capacity=0.444444 max_edge_load=0.18 max_edge_utilization=0.405 total_traversals=6154 buffer_exploded=1 load_exceeded_capacity=0
Edge (17 -> 16) dst_input_port=9 max_buffer_ratio=1 buffer_over_90_fraction=0.0272654 buffer_full_fraction=0.0272654 max_full_streak=4 edge_capacity=0.444444 max_edge_load=0.18 max_edge_utilization=0.405 total_traversals=6143 buffer_exploded=1 load_exceeded_capacity=0
Edge (17 -> 35) dst_input_port=0 max_buffer_ratio=1 buffer_over_90_fraction=0.000702506 buffer_full_fraction=0.000702506 max_full_streak=1 edge_capacity=1 max_edge_load=0.269 max_edge_utilization=0.269 total_traversals=9198 buffer_exploded=1 load_exceeded_capacity=0
Edge (18 -> 0) dst_input_port=1 max_buffer_ratio=1 buffer_over_90_fraction=0.000227914 buffer_full_fraction=0.000227914 max_full_streak=1 edge_capacity=1 max_edge_load=0.271 max_edge_utilization=0.271 total_traversals=9177 buffer_exploded=1 load_exceeded_capacity=0
Edge (18 -> 19) dst_input_port=2 max_buffer_ratio=1 buffer_over_90_fraction=0.0196085 buffer_full_fraction=0.0196085 max_full_streak=3 edge_capacity=0.444444 max_edge_load=0.181 max_edge_utilization=0.40725 total_traversals=6156 buffer_exploded=1 load_exceeded_capacity=0
Edge (18 -> 20) dst_input_port=2 max_buffer_ratio=1 buffer_over_90_fraction=0.0203752 buffer_full_fraction=0.0203752 max_full_streak=3 edge_capacity=0.444444 max_edge_load=0.181 max_edge_utilization=0.40725 total_traversals=6143 buffer_exploded=1 load_exceeded_capacity=0
Edge (18 -> 21) dst_input_port=2 max_buffer_ratio=1 buffer_over_90_fraction=0.0162249 buffer_full_fraction=0.0162249 max_full_streak=6 edge_capacity=0.444444 max_edge_load=0.181 max_edge_utilization=0.40725 total_traversals=6146 buffer_exploded=1 load_exceeded_capacity=0
Edge (18 -> 22) dst_input_port=2 max_buffer_ratio=1 buffer_over_90_fraction=0.0189265 buffer_full_fraction=0.0189265 max_full_streak=4 edge_capacity=0.444444 max_edge_load=0.179 max_edge_utilization=0.40275 total_traversals=6128 buffer_exploded=1 load_exceeded_capacity=0
Edge (18 -> 23) dst_input_port=2 max_buffer_ratio=1 buffer_over_90_fraction=0.0253211 buffer_full_fraction=0.0253211 max_full_streak=5 edge_capacity=0.444444 max_edge_load=0.18 max_edge_utilization=0.405 total_traversals=6147 buffer_exploded=1 load_exceeded_capacity=0
Edge (18 -> 24) dst_input_port=2 max_buffer_ratio=1 buffer_over_90_fraction=0.0539 buffer_full_fraction=0.0539 max_full_streak=5 edge_capacity=0.444444 max_edge_load=0.181 max_edge_utilization=0.40725 total_traversals=6156 buffer_exploded=1 load_exceeded_capacity=0
Edge (18 -> 25) dst_input_port=2 max_buffer_ratio=1 buffer_over_90_fraction=0.0364507 buffer_full_fraction=0.0364507 max_full_streak=5 edge_capacity=0.444444 max_edge_load=0.18 max_edge_utilization=0.405 total_traversals=6153 buffer_exploded=1 load_exceeded_capacity=0
Edge (18 -> 26) dst_input_port=2 max_buffer_ratio=1 buffer_over_90_fraction=0.029615 buffer_full_fraction=0.029615 max_full_streak=5 edge_capacity=0.444444 max_edge_load=0.183 max_edge_utilization=0.41175 total_traversals=6143 buffer_exploded=1 load_exceeded_capacity=0
Edge (18 -> 27) dst_input_port=1 max_buffer_ratio=1 buffer_over_90_fraction=0.000666234 buffer_full_fraction=0.000666234 max_full_streak=1 edge_capacity=1 max_edge_load=0.272 max_edge_utilization=0.272 total_traversals=9202 buffer_exploded=1 load_exceeded_capacity=0
Edge (19 -> 1) dst_input_port=1 max_buffer_ratio=1 buffer_over_90_fraction=0.00115712 buffer_full_fraction=0.00115712 max_full_streak=1 edge_capacity=1 max_edge_load=0.27 max_edge_utilization=0.27 total_traversals=9177 buffer_exploded=1 load_exceeded_capacity=0
Edge (19 -> 18) dst_input_port=2 max_buffer_ratio=1 buffer_over_90_fraction=0.0298387 buffer_full_fraction=0.0298387 max_full_streak=4 edge_capacity=0.444444 max_edge_load=0.18 max_edge_utilization=0.405 total_traversals=6159 buffer_exploded=1 load_exceeded_capacity=0
Edge (19 -> 20) dst_input_port=3 max_buffer_ratio=1 buffer_over_90_fraction=0.0370975 buffer_full_fraction=0.0370975 max_full_streak=5 edge_capacity=0.444444 max_edge_load=0.18 max_edge_utilization=0.405 total_traversals=6129 buffer_exploded=1 load_exceeded_capacity=0
Edge (19 -> 21) dst_input_port=3 max_buffer_ratio=1 buffer_over_90_fraction=0.0260522 buffer_full_fraction=0.0260522 max_full_streak=7 edge_capacity=0.444444 max_edge_load=0.181 max_edge_utilization=0.40725 total_traversals=6132 buffer_exploded=1 load_exceeded_capacity=0
Edge (19 -> 22) dst_input_port=3 max_buffer_ratio=1 buffer_over_90_fraction=0.0124401 buffer_full_fraction=0.0124401 max_full_streak=4 edge_capacity=0.444444 max_edge_load=0.179 max_edge_utilization=0.40275 total_traversals=6114 buffer_exploded=1 load_exceeded_capacity=0
Edge (19 -> 23) dst_input_port=3 max_buffer_ratio=1 buffer_over_90_fraction=0.0142877 buffer_full_fraction=0.0142877 max_full_streak=3 edge_capacity=0.444444 max_edge_load=0.18 max_edge_utilization=0.405 total_traversals=6133 buffer_exploded=1 load_exceeded_capacity=0
Edge (19 -> 24) dst_input_port=3 max_buffer_ratio=1 buffer_over_90_fraction=0.0498527 buffer_full_fraction=0.0498527 max_full_streak=6 edge_capacity=0.444444 max_edge_load=0.18 max_edge_utilization=0.405 total_traversals=6141 buffer_exploded=1 load_exceeded_capacity=0
Edge (19 -> 25) dst_input_port=3 max_buffer_ratio=1 buffer_over_90_fraction=0.0215039 buffer_full_fraction=0.0215039 max_full_streak=3 edge_capacity=0.444444 max_edge_load=0.18 max_edge_utilization=0.405 total_traversals=6139 buffer_exploded=1 load_exceeded_capacity=0
Edge (19 -> 26) dst_input_port=3 max_buffer_ratio=1 buffer_over_90_fraction=0.0241125 buffer_full_fraction=0.0241125 max_full_streak=4 edge_capacity=0.444444 max_edge_load=0.183 max_edge_utilization=0.41175 total_traversals=6129 buffer_exploded=1 load_exceeded_capacity=0
Edge (19 -> 28) dst_input_port=1 max_buffer_ratio=1 buffer_over_90_fraction=0.000701533 buffer_full_fraction=0.000701533 max_full_streak=1 edge_capacity=1 max_edge_load=0.271 max_edge_utilization=0.271 total_traversals=9202 buffer_exploded=1 load_exceeded_capacity=0
[...]
Edge (28 -> 34) dst_input_port=3 max_buffer_ratio=1 buffer_over_90_fraction=0.0209605 buffer_full_fraction=0.0209605 max_full_streak=3 edge_capacity=0.444444 max_edge_load=0.179 max_edge_utilization=0.40275 total_traversals=6151 buffer_exploded=1 load_exceeded_capacity=0
Edge (28 -> 35) dst_input_port=3 max_buffer_ratio=1 buffer_over_90_fraction=0.0242923 buffer_full_fraction=0.0242923 max_full_streak=3 edge_capacity=0.444444 max_edge_load=0.182 max_edge_utilization=0.4095 total_traversals=6141 buffer_exploded=1 load_exceeded_capacity=0
Edge (29 -> 11) dst_input_port=1 max_buffer_ratio=1 buffer_over_90_fraction=0.00103471 buffer_full_fraction=0.00103471 max_full_streak=2 edge_capacity=1 max_edge_load=0.271 max_edge_utilization=0.271 total_traversals=9188 buffer_exploded=1 load_exceeded_capacity=0
Edge (29 -> 20) dst_input_port=1 max_buffer_ratio=1 buffer_over_90_fraction=0.000578795 buffer_full_fraction=0.000578795 max_full_streak=1 edge_capacity=1 max_edge_load=0.269 max_edge_utilization=0.269 total_traversals=9217 buffer_exploded=1 load_exceeded_capacity=0
Edge (29 -> 27) dst_input_port=3 max_buffer_ratio=1 buffer_over_90_fraction=0.0434249 buffer_full_fraction=0.0434249 max_full_streak=6 edge_capacity=0.444444 max_edge_load=0.182 max_edge_utilization=0.4095 total_traversals=6123 buffer_exploded=1 load_exceeded_capacity=0
Edge (29 -> 28) dst_input_port=3 max_buffer_ratio=1 buffer_over_90_fraction=0.0300107 buffer_full_fraction=0.0300107 max_full_streak=5 edge_capacity=0.444444 max_edge_load=0.183 max_edge_utilization=0.41175 total_traversals=6112 buffer_exploded=1 load_exceeded_capacity=0
Edge (29 -> 30) dst_input_port=4 max_buffer_ratio=1 buffer_over_90_fraction=0.0370097 buffer_full_fraction=0.0370097 max_full_streak=5 edge_capacity=0.444444 max_edge_load=0.181 max_edge_utilization=0.40725 total_traversals=6144 buffer_exploded=1 load_exceeded_capacity=0
Edge (29 -> 31) dst_input_port=4 max_buffer_ratio=1 buffer_over_90_fraction=0.0220503 buffer_full_fraction=0.0220503 max_full_streak=3 edge_capacity=0.444444 max_edge_load=0.18 max_edge_utilization=0.405 total_traversals=6109 buffer_exploded=1 load_exceeded_capacity=0
Edge (29 -> 32) dst_input_port=4 max_buffer_ratio=1 buffer_over_90_fraction=0.0127791 buffer_full_fraction=0.0127791 max_full_streak=4 edge_capacity=0.444444 max_edge_load=0.181 max_edge_utilization=0.40725 total_traversals=6113 buffer_exploded=1 load_exceeded_capacity=0
Edge (29 -> 33) dst_input_port=4 max_buffer_ratio=1 buffer_over_90_fraction=0.0219923 buffer_full_fraction=0.0219923 max_full_streak=3 edge_capacity=0.444444 max_edge_load=0.181 max_edge_utilization=0.40725 total_traversals=6107 buffer_exploded=1 load_exceeded_capacity=0
Edge (29 -> 34) dst_input_port=4 max_buffer_ratio=1 buffer_over_90_fraction=0.0205227 buffer_full_fraction=0.0205227 max_full_streak=4 edge_capacity=0.444444 max_edge_load=0.182 max_edge_utilization=0.4095 total_traversals=6113 buffer_exploded=1 load_exceeded_capacity=0
Edge (29 -> 35) dst_input_port=4 max_buffer_ratio=1 buffer_over_90_fraction=0.0228776 buffer_full_fraction=0.0228776 max_full_streak=4 edge_capacity=0.444444 max_edge_load=0.181 max_edge_utilization=0.40725 total_traversals=6103 buffer_exploded=1 load_exceeded_capacity=0
Edge (30 -> 12) dst_input_port=1 max_buffer_ratio=1 buffer_over_90_fraction=0.00152618 buffer_full_fraction=0.00152618 max_full_streak=1 edge_capacity=1 max_edge_load=0.27 max_edge_utilization=0.27 total_traversals=9188 buffer_exploded=1 load_exceeded_capacity=0
Edge (30 -> 21) dst_input_port=1 max_buffer_ratio=1 buffer_over_90_fraction=0.00164889 buffer_full_fraction=0.00164889 max_full_streak=1 edge_capacity=1 max_edge_load=0.269 max_edge_utilization=0.269 total_traversals=9217 buffer_exploded=1 load_exceeded_capacity=0
Edge (30 -> 27) dst_input_port=4 max_buffer_ratio=1 buffer_over_90_fraction=0.0270863 buffer_full_fraction=0.0270863 max_full_streak=5 edge_capacity=0.444444 max_edge_load=0.182 max_edge_utilization=0.4095 total_traversals=6141 buffer_exploded=1 load_exceeded_capacity=0
Edge (30 -> 28) dst_input_port=4 max_buffer_ratio=1 buffer_over_90_fraction=0.0369941 buffer_full_fraction=0.0369941 max_full_streak=6 edge_capacity=0.444444 max_edge_load=0.18 max_edge_utilization=0.405 total_traversals=6130 buffer_exploded=1 load_exceeded_capacity=0
Edge (30 -> 29) dst_input_port=4 max_buffer_ratio=1 buffer_over_90_fraction=0.0425061 buffer_full_fraction=0.0425061 max_full_streak=5 edge_capacity=0.444444 max_edge_load=0.179 max_edge_utilization=0.40275 total_traversals=6137 buffer_exploded=1 load_exceeded_capacity=0
Edge (30 -> 31) dst_input_port=5 max_buffer_ratio=1 buffer_over_90_fraction=0.0200351 buffer_full_fraction=0.0200351 max_full_streak=4 edge_capacity=0.444444 max_edge_load=0.181 max_edge_utilization=0.40725 total_traversals=6127 buffer_exploded=1 load_exceeded_capacity=0
Edge (30 -> 32) dst_input_port=5 max_buffer_ratio=1 buffer_over_90_fraction=0.0235057 buffer_full_fraction=0.0235057 max_full_streak=3 edge_capacity=0.444444 max_edge_load=0.181 max_edge_utilization=0.40725 total_traversals=6132 buffer_exploded=1 load_exceeded_capacity=0
Edge (30 -> 33) dst_input_port=5 max_buffer_ratio=1 buffer_over_90_fraction=0.00465484 buffer_full_fraction=0.00465484 max_full_streak=5 edge_capacity=0.444444 max_edge_load=0.183 max_edge_utilization=0.41175 total_traversals=6128 buffer_exploded=1 load_exceeded_capacity=0
Edge (30 -> 34) dst_input_port=5 max_buffer_ratio=1 buffer_over_90_fraction=0.0243004 buffer_full_fraction=0.0243004 max_full_streak=3 edge_capacity=0.444444 max_edge_load=0.179 max_edge_utilization=0.40275 total_traversals=6132 buffer_exploded=1 load_exceeded_capacity=0
Edge (30 -> 35) dst_input_port=5 max_buffer_ratio=1 buffer_over_90_fraction=0.0285995 buffer_full_fraction=0.0285995 max_full_streak=4 edge_capacity=0.444444 max_edge_load=0.181 max_edge_utilization=0.40725 total_traversals=6122 buffer_exploded=1 load_exceeded_capacity=0
Edge (31 -> 13) dst_input_port=1 max_buffer_ratio=1 buffer_over_90_fraction=0.0012111 buffer_full_fraction=0.0012111 max_full_streak=1 edge_capacity=1 max_edge_load=0.27 max_edge_utilization=0.27 total_traversals=9188 buffer_exploded=1 load_exceeded_capacity=0
Edge (31 -> 22) dst_input_port=1 max_buffer_ratio=1 buffer_over_90_fraction=0.00138648 buffer_full_fraction=0.00138648 max_full_streak=2 edge_capacity=1 max_edge_load=0.27 max_edge_utilization=0.27 total_traversals=9217 buffer_exploded=1 load_exceeded_capacity=0
Edge (31 -> 27) dst_input_port=5 max_buffer_ratio=1 buffer_over_90_fraction=0.0166439 buffer_full_fraction=0.0166439 max_full_streak=4 edge_capacity=0.444444 max_edge_load=0.18 max_edge_utilization=0.405 total_traversals=6132 buffer_exploded=1 load_exceeded_capacity=0
Edge (31 -> 28) dst_input_port=5 max_buffer_ratio=1 buffer_over_90_fraction=0.0105963 buffer_full_fraction=0.0105963 max_full_streak=3 edge_capacity=0.444444 max_edge_load=0.179 max_edge_utilization=0.40275 total_traversals=6122 buffer_exploded=1 load_exceeded_capacity=0
Edge (31 -> 29) dst_input_port=5 max_buffer_ratio=1 buffer_over_90_fraction=0.030746 buffer_full_fraction=0.030746 max_full_streak=4 edge_capacity=0.444444 max_edge_load=0.179 max_edge_utilization=0.40275 total_traversals=6128 buffer_exploded=1 load_exceeded_capacity=0
Edge (31 -> 30) dst_input_port=5 max_buffer_ratio=1 buffer_over_90_fraction=0.0262063 buffer_full_fraction=0.0262063 max_full_streak=5 edge_capacity=0.444444 max_edge_load=0.182 max_edge_utilization=0.4095 total_traversals=6153 buffer_exploded=1 load_exceeded_capacity=0
Edge (31 -> 32) dst_input_port=6 max_buffer_ratio=1 buffer_over_90_fraction=0.0244618 buffer_full_fraction=0.0244618 max_full_streak=3 edge_capacity=0.444444 max_edge_load=0.18 max_edge_utilization=0.405 total_traversals=6123 buffer_exploded=1 load_exceeded_capacity=0
Edge (31 -> 33) dst_input_port=6 max_buffer_ratio=1 buffer_over_90_fraction=0.0174582 buffer_full_fraction=0.0174582 max_full_streak=3 edge_capacity=0.444444 max_edge_load=0.18 max_edge_utilization=0.405 total_traversals=6117 buffer_exploded=1 load_exceeded_capacity=0
Edge (31 -> 34) dst_input_port=6 max_buffer_ratio=1 buffer_over_90_fraction=0.0347847 buffer_full_fraction=0.0347847 max_full_streak=5 edge_capacity=0.444444 max_edge_load=0.178 max_edge_utilization=0.4005 total_traversals=6123 buffer_exploded=1 load_exceeded_capacity=0
Edge (31 -> 35) dst_input_port=6 max_buffer_ratio=1 buffer_over_90_fraction=0.0171645 buffer_full_fraction=0.0171645 max_full_streak=3 edge_capacity=0.444444 max_edge_load=0.18 max_edge_utilization=0.405 total_traversals=6113 buffer_exploded=1 load_exceeded_capacity=0
Edge (32 -> 14) dst_input_port=1 max_buffer_ratio=1 buffer_over_90_fraction=0.00022823 buffer_full_fraction=0.00022823 max_full_streak=1 edge_capacity=1 max_edge_load=0.271 max_edge_utilization=0.271 total_traversals=9187 buffer_exploded=1 load_exceeded_capacity=0
Edge (32 -> 23) dst_input_port=1 max_buffer_ratio=1 buffer_over_90_fraction=0.000842845 buffer_full_fraction=0.000842845 max_full_streak=1 edge_capacity=1 max_edge_load=0.271 max_edge_utilization=0.271 total_traversals=9217 buffer_exploded=1 load_exceeded_capacity=0
Edge (32 -> 27) dst_input_port=6 max_buffer_ratio=1 buffer_over_90_fraction=0.0362431 buffer_full_fraction=0.0362431 max_full_streak=4 edge_capacity=0.444444 max_edge_load=0.18 max_edge_utilization=0.405 total_traversals=6149 buffer_exploded=1 load_exceeded_capacity=0
Edge (32 -> 28) dst_input_port=6 max_buffer_ratio=1 buffer_over_90_fraction=0.0365665 buffer_full_fraction=0.0365665 max_full_streak=4 edge_capacity=0.444444 max_edge_load=0.18 max_edge_utilization=0.405 total_traversals=6139 buffer_exploded=1 load_exceeded_capacity=0
Edge (32 -> 29) dst_input_port=6 max_buffer_ratio=1 buffer_over_90_fraction=0.0347496 buffer_full_fraction=0.0347496 max_full_streak=5 edge_capacity=0.444444 max_edge_load=0.18 max_edge_utilization=0.405 total_traversals=6146 buffer_exploded=1 load_exceeded_capacity=0
Edge (32 -> 30) dst_input_port=6 max_buffer_ratio=1 buffer_over_90_fraction=0.0302115 buffer_full_fraction=0.0302115 max_full_streak=4 edge_capacity=0.444444 max_edge_load=0.182 max_edge_utilization=0.4095 total_traversals=6170 buffer_exploded=1 load_exceeded_capacity=0
Edge (32 -> 31) dst_input_port=6 max_buffer_ratio=1 buffer_over_90_fraction=0.0197107 buffer_full_fraction=0.0197107 max_full_streak=4 edge_capacity=0.444444 max_edge_load=0.183 max_edge_utilization=0.41175 total_traversals=6135 buffer_exploded=1 load_exceeded_capacity=0
Edge (32 -> 33) dst_input_port=7 max_buffer_ratio=1 buffer_over_90_fraction=0.0142872 buffer_full_fraction=0.0142872 max_full_streak=3 edge_capacity=0.444444 max_edge_load=0.18 max_edge_utilization=0.405 total_traversals=6135 buffer_exploded=1 load_exceeded_capacity=0
Edge (32 -> 34) dst_input_port=7 max_buffer_ratio=1 buffer_over_90_fraction=0.0158504 buffer_full_fraction=0.0158504 max_full_streak=3 edge_capacity=0.444444 max_edge_load=0.179 max_edge_utilization=0.40275 total_traversals=6140 buffer_exploded=1 load_exceeded_capacity=0
Edge (32 -> 35) dst_input_port=7 max_buffer_ratio=1 buffer_over_90_fraction=0.0146904 buffer_full_fraction=0.0146904 max_full_streak=3 edge_capacity=0.444444 max_edge_load=0.182 max_edge_utilization=0.4095 total_traversals=6130 buffer_exploded=1 load_exceeded_capacity=0
Edge (33 -> 15) dst_input_port=1 max_buffer_ratio=1 buffer_over_90_fraction=0.00112369 buffer_full_fraction=0.00112369 max_full_streak=1 edge_capacity=1 max_edge_load=0.269 max_edge_utilization=0.269 total_traversals=9187 buffer_exploded=1 load_exceeded_capacity=0
Edge (33 -> 24) dst_input_port=1 max_buffer_ratio=1 buffer_over_90_fraction=0.00154565 buffer_full_fraction=0.00154565 max_full_streak=1 edge_capacity=1 max_edge_load=0.27 max_edge_utilization=0.27 total_traversals=9216 buffer_exploded=1 load_exceeded_capacity=0
Edge (33 -> 27) dst_input_port=7 max_buffer_ratio=1 buffer_over_90_fraction=0.0107291 buffer_full_fraction=0.0107291 max_full_streak=4 edge_capacity=0.444444 max_edge_load=0.182 max_edge_utilization=0.4095 total_traversals=6156 buffer_exploded=1 load_exceeded_capacity=0
Edge (33 -> 28) dst_input_port=7 max_buffer_ratio=1 buffer_over_90_fraction=0.0258321 buffer_full_fraction=0.0258321 max_full_streak=3 edge_capacity=0.444444 max_edge_load=0.181 max_edge_utilization=0.40725 total_traversals=6145 buffer_exploded=1 load_exceeded_capacity=0
Edge (33 -> 29) dst_input_port=7 max_buffer_ratio=1 buffer_over_90_fraction=0.0305152 buffer_full_fraction=0.0305152 max_full_streak=4 edge_capacity=0.444444 max_edge_load=0.181 max_edge_utilization=0.40725 total_traversals=6152 buffer_exploded=1 load_exceeded_capacity=0
Edge (33 -> 30) dst_input_port=7 max_buffer_ratio=1 buffer_over_90_fraction=0.0399157 buffer_full_fraction=0.0399157 max_full_streak=3 edge_capacity=0.444444 max_edge_load=0.182 max_edge_utilization=0.4095 total_traversals=6175 buffer_exploded=1 load_exceeded_capacity=0
Edge (33 -> 31) dst_input_port=7 max_buffer_ratio=1 buffer_over_90_fraction=0.0502036 buffer_full_fraction=0.0502036 max_full_streak=6 edge_capacity=0.444444 max_edge_load=0.181 max_edge_utilization=0.40725 total_traversals=6140 buffer_exploded=1 load_exceeded_capacity=0
Edge (33 -> 32) dst_input_port=7 max_buffer_ratio=1 buffer_over_90_fraction=0.042737 buffer_full_fraction=0.042737 max_full_streak=4 edge_capacity=0.444444 max_edge_load=0.181 max_edge_utilization=0.40725 total_traversals=6145 buffer_exploded=1 load_exceeded_capacity=0
Edge (33 -> 34) dst_input_port=8 max_buffer_ratio=1 buffer_over_90_fraction=0.031685 buffer_full_fraction=0.031685 max_full_streak=3 edge_capacity=0.444444 max_edge_load=0.181 max_edge_utilization=0.40725 total_traversals=6146 buffer_exploded=1 load_exceeded_capacity=0
Edge (33 -> 35) dst_input_port=8 max_buffer_ratio=1 buffer_over_90_fraction=0.0466633 buffer_full_fraction=0.0466633 max_full_streak=6 edge_capacity=0.444444 max_edge_load=0.181 max_edge_utilization=0.40725 total_traversals=6136 buffer_exploded=1 load_exceeded_capacity=0
Edge (34 -> 16) dst_input_port=1 max_buffer_ratio=1 buffer_over_90_fraction=0.00152771 buffer_full_fraction=0.00152771 max_full_streak=1 edge_capacity=1 max_edge_load=0.27 max_edge_utilization=0.27 total_traversals=9185 buffer_exploded=1 load_exceeded_capacity=0
Edge (34 -> 25) dst_input_port=1 max_buffer_ratio=1 buffer_over_90_fraction=0.000474292 buffer_full_fraction=0.000474292 max_full_streak=2 edge_capacity=1 max_edge_load=0.27 max_edge_utilization=0.27 total_traversals=9216 buffer_exploded=1 load_exceeded_capacity=0
Edge (34 -> 27) dst_input_port=8 max_buffer_ratio=1 buffer_over_90_fraction=0.0215974 buffer_full_fraction=0.0215974 max_full_streak=3 edge_capacity=0.444444 max_edge_load=0.18 max_edge_utilization=0.405 total_traversals=6157 buffer_exploded=1 load_exceeded_capacity=0
Edge (34 -> 28) dst_input_port=8 max_buffer_ratio=1 buffer_over_90_fraction=0.029761 buffer_full_fraction=0.029761 max_full_streak=5 edge_capacity=0.444444 max_edge_load=0.181 max_edge_utilization=0.40725 total_traversals=6147 buffer_exploded=1 load_exceeded_capacity=0
Edge (34 -> 29) dst_input_port=8 max_buffer_ratio=1 buffer_over_90_fraction=0.0260615 buffer_full_fraction=0.0260615 max_full_streak=4 edge_capacity=0.444444 max_edge_load=0.181 max_edge_utilization=0.40725 total_traversals=6153 buffer_exploded=1 load_exceeded_capacity=0
Edge (34 -> 30) dst_input_port=8 max_buffer_ratio=1 buffer_over_90_fraction=0.0178308 buffer_full_fraction=0.0178308 max_full_streak=3 edge_capacity=0.444444 max_edge_load=0.18 max_edge_utilization=0.405 total_traversals=6178 buffer_exploded=1 load_exceeded_capacity=0
Edge (34 -> 31) dst_input_port=8 max_buffer_ratio=1 buffer_over_90_fraction=0.0308222 buffer_full_fraction=0.0308222 max_full_streak=5 edge_capacity=0.444444 max_edge_load=0.181 max_edge_utilization=0.40725 total_traversals=6143 buffer_exploded=1 load_exceeded_capacity=0
Edge (34 -> 32) dst_input_port=8 max_buffer_ratio=1 buffer_over_90_fraction=0.0256681 buffer_full_fraction=0.0256681 max_full_streak=3 edge_capacity=0.444444 max_edge_load=0.181 max_edge_utilization=0.40725 total_traversals=6148 buffer_exploded=1 load_exceeded_capacity=0
Edge (34 -> 33) dst_input_port=8 max_buffer_ratio=1 buffer_over_90_fraction=0.0249389 buffer_full_fraction=0.0249389 max_full_streak=3 edge_capacity=0.444444 max_edge_load=0.18 max_edge_utilization=0.405 total_traversals=6143 buffer_exploded=1 load_exceeded_capacity=0
Edge (34 -> 35) dst_input_port=9 max_buffer_ratio=1 buffer_over_90_fraction=0.0209608 buffer_full_fraction=0.0209608 max_full_streak=5 edge_capacity=0.444444 max_edge_load=0.18 max_edge_utilization=0.405 total_traversals=6139 buffer_exploded=1 load_exceeded_capacity=0
Edge (35 -> 17) dst_input_port=1 max_buffer_ratio=1 buffer_over_90_fraction=0.00207203 buffer_full_fraction=0.00207203 max_full_streak=4 edge_capacity=1 max_edge_load=0.269 max_edge_utilization=0.269 total_traversals=9185 buffer_exploded=1 load_exceeded_capacity=0
Edge (35 -> 26) dst_input_port=1 max_buffer_ratio=1 buffer_over_90_fraction=0.000702778 buffer_full_fraction=0.000702778 max_full_streak=1 edge_capacity=1 max_edge_load=0.27 max_edge_utilization=0.27 total_traversals=9216 buffer_exploded=1 load_exceeded_capacity=0
Edge (35 -> 27) dst_input_port=9 max_buffer_ratio=1 buffer_over_90_fraction=0.0205302 buffer_full_fraction=0.0205302 max_full_streak=3 edge_capacity=0.444444 max_edge_load=0.182 max_edge_utilization=0.4095 total_traversals=6148 buffer_exploded=1 load_exceeded_capacity=0
Edge (35 -> 28) dst_input_port=9 max_buffer_ratio=1 buffer_over_90_fraction=0.0088193 buffer_full_fraction=0.0088193 max_full_streak=3 edge_capacity=0.444444 max_edge_load=0.18 max_edge_utilization=0.405 total_traversals=6138 buffer_exploded=1 load_exceeded_capacity=0
Edge (35 -> 29) dst_input_port=9 max_buffer_ratio=1 buffer_over_90_fraction=0.0226217 buffer_full_fraction=0.0226217 max_full_streak=4 edge_capacity=0.444444 max_edge_load=0.18 max_edge_utilization=0.405 total_traversals=6144 buffer_exploded=1 load_exceeded_capacity=0
Edge (35 -> 30) dst_input_port=9 max_buffer_ratio=1 buffer_over_90_fraction=0.00856005 buffer_full_fraction=0.00856005 max_full_streak=3 edge_capacity=0.444444 max_edge_load=0.182 max_edge_utilization=0.4095 total_traversals=6169 buffer_exploded=1 load_exceeded_capacity=0
Edge (35 -> 31) dst_input_port=9 max_buffer_ratio=1 buffer_over_90_fraction=0.0255015 buffer_full_fraction=0.0255015 max_full_streak=4 edge_capacity=0.444444 max_edge_load=0.18 max_edge_utilization=0.405 total_traversals=6134 buffer_exploded=1 load_exceeded_capacity=0
Edge (35 -> 32) dst_input_port=9 max_buffer_ratio=1 buffer_over_90_fraction=0.0286672 buffer_full_fraction=0.0286672 max_full_streak=3 edge_capacity=0.444444 max_edge_load=0.181 max_edge_utilization=0.40725 total_traversals=6139 buffer_exploded=1 load_exceeded_capacity=0
Edge (35 -> 33) dst_input_port=9 max_buffer_ratio=1 buffer_over_90_fraction=0.0172756 buffer_full_fraction=0.0172756 max_full_streak=3 edge_capacity=0.444444 max_edge_load=0.183 max_edge_utilization=0.41175 total_traversals=6134 buffer_exploded=1 load_exceeded_capacity=0
Edge (35 -> 34) dst_input_port=9 max_buffer_ratio=1 buffer_over_90_fraction=0.0293054 buffer_full_fraction=0.0293054 max_full_streak=3 edge_capacity=0.444444 max_edge_load=0.179 max_edge_utilization=0.40275 total_traversals=6138 buffer_exploded=1 load_exceeded_capacity=0
Observed edge count = 360
Observed edge max buffer ratio = 1
Observed edge max load = 0.273
Observed edge max utilization = 0.41625
Observed edge avg over-0.9 buffer fraction = 0.0210482
Observed edge avg full-buffer fraction = 0.0210482
Observed edge max over-0.9 buffer fraction = 0.0555926
Observed edge max full-buffer fraction = 0.0555926
Observed edge worst full-buffer streak = 10
Observed edge exploded buffer count = 360
Observed edge exceeded capacity count = 0

