BEGIN Configuration File: D:\noc_huawei\noc\booksim2-noc_speedup_study\booksim2-noc_speedup_study\tests\data\results\dfm_n9_growth_scheduled_20260409\tmp_configs\dfm_hybrid_dr_dsl_s2202.config
num_vcs     = 24;
vc_buf_size = 16;
wait_for_tail_credit = 1;

vc_allocator = islip;
sw_allocator = islip;
alloc_iters  = 4;

credit_delay   = 2;
routing_delay  = 0;
vc_alloc_delay = 1;
sw_alloc_delay = 1;
st_final_delay = 1;

input_speedup     = 1;
output_speedup    = 1;
internal_speedup  = 1.0;

sim_type = latency;
latency_thres  = 100000.0;
sim_count      = 1;
queue_sample_period_cycles = 0;

topology = die_mesh_full;
dfm_tiles_per_die = 9;
dfm_intra_bandwidth_num = 4;

dfm_hybrid_soft_threshold = 0.25;
dfm_hybrid_hard_threshold = 0.50;
dfm_hybrid_release_threshold = 0.18;
dfm_hybrid_congestion_alpha = 0.25;
dfm_hybrid_increase_step = 0.50;
dfm_hybrid_decrease_step = 0.06;
dfm_hybrid_capacity_guard_ratio = 0.98;
dfm_hybrid_rate_weight = 0.50;
dfm_hybrid_util_target = 0.98;
dfm_hybrid_util_gain = 0.60;
dfm_hybrid_epoch_cycles = 200;
dfm_hybrid_feedback_delay_per_hop = 1;

hybrid_edge_capacity = 1.0;
hybrid_stats_window_cycles = 1000;

packet_size = 1;
traffic = custom_perm;
custom_perm_array = {3,10,20,6,13,23,0,16,26,12,28,2,15,31,5,9,34,8,21,1,29,24,4,32,18,7,35,30,19,11,33,22,14,27,25,17};

injection_rate = 0.05;
dfm_hybrid_stats_window_cycles = 3000;
max_samples = 26;
scheduled_phase_cycles = {3000,3000,3000,3000,3000,3000,3000,3000,3000,3000,3000,3000,3000,3000,3000,3000,3000,3000};
sample_period = 3000;
routing_function = dfm_hybrid_dr_dsl;
warmup_periods = 2;
injection_process = scheduled;
scheduled_injection_rates = {0.05,0.1,0.15,0.2,0.25,0.3,0.35,0.4,0.45,0.5,0.55,0.6,0.65,0.7,0.75,0.8,0.8,0.8};
scheduled_default_phase_cycles = 3000;
perm_seed = 2202;
seed = 2202;

END Configuration File: D:\noc_huawei\noc\booksim2-noc_speedup_study\booksim2-noc_speedup_study\tests\data\results\dfm_n9_growth_scheduled_20260409\tmp_configs\dfm_hybrid_dr_dsl_s2202.config
Class 0:
Packet latency average = 10.1497
	minimum = 10
	maximum = 15
	95th percentile = 11.5
	99th percentile = 14.5
Network latency average = 10.1497
	minimum = 10
	maximum = 15
	95th percentile = 11.5
	99th percentile = 14.5
Slowest packet = 4961
Flit latency average = 10.1497
	minimum = 10
	maximum = 15
	95th percentile = 11.5
	99th percentile = 14.5
Slowest flit = 4961
Fragmentation average = 0
	minimum = 0
	maximum = 0
Injected packet rate average = 0.0490648
	minimum = 0.042 (at node 7)
	maximum = 0.057 (at node 15)
Accepted packet rate average = 0.0489259
	minimum = 0.0416667 (at node 16)
	maximum = 0.0566667 (at node 9)
Injected flit rate average = 0.0490648
	minimum = 0.042 (at node 7)
	maximum = 0.057 (at node 15)
Accepted flit rate average= 0.0489259
	minimum = 0.0416667 (at node 16)
	maximum = 0.0566667 (at node 9)
Injected packet length average = 1
Accepted packet length average = 1
Total in-flight flits = 15 (0 measured)
====== Peak Queue Occupancy Statistics (Absolute Max) ======
  Overall Max VC Occupancy = 1
  Overall Max Buffer Occupancy = 2
latency change    = 1
throughput change = 1
Class 0:
Packet latency average = 10.2373
	minimum = 10
	maximum = 16
	95th percentile = 12.5
	99th percentile = 14.5
Network latency average = 10.2373
	minimum = 10
	maximum = 16
	95th percentile = 12.5
	99th percentile = 14.5
Slowest packet = 9862
Flit latency average = 10.2373
	minimum = 10
	maximum = 16
	95th percentile = 12.5
	99th percentile = 14.5
Slowest flit = 9862
Fragmentation average = 0
	minimum = 0
	maximum = 0
Injected packet rate average = 0.0739491
	minimum = 0.0626667 (at node 6)
	maximum = 0.0835 (at node 13)
Accepted packet rate average = 0.0737593
	minimum = 0.0623333 (at node 0)
	maximum = 0.0835 (at node 31)
Injected flit rate average = 0.0739491
	minimum = 0.0626667 (at node 6)
	maximum = 0.0835 (at node 13)
Accepted flit rate average= 0.0737593
	minimum = 0.0623333 (at node 0)
	maximum = 0.0835 (at node 31)
Injected packet length average = 1
Accepted packet length average = 1
Total in-flight flits = 41 (0 measured)
====== Peak Queue Occupancy Statistics (Absolute Max) ======
  Overall Max VC Occupancy = 1
  Overall Max Buffer Occupancy = 2
latency change    = 0.00855318
throughput change = 0.336681
Warmed up ...Time used is 6000 cycles
Class 0:
Packet latency average = 11.3427
	minimum = 10
	maximum = 21
	95th percentile = 18.5
	99th percentile = 18.5
Network latency average = 11.3427
	minimum = 10
	maximum = 21
	95th percentile = 18.5
	99th percentile = 18.5
Slowest packet = 22175
Flit latency average = 11.3407
	minimum = 10
	maximum = 21
	95th percentile = 18.5
	99th percentile = 18.5
Slowest flit = 22175
Fragmentation average = 0
	minimum = 0
	maximum = 0
Injected packet rate average = 0.151074
	minimum = 0.135 (at node 20)
	maximum = 0.168333 (at node 10)
Accepted packet rate average = 0.150685
	minimum = 0.135 (at node 29)
	maximum = 0.168 (at node 28)
Injected flit rate average = 0.151074
	minimum = 0.135 (at node 20)
	maximum = 0.168333 (at node 10)
Accepted flit rate average= 0.150685
	minimum = 0.135 (at node 29)
	maximum = 0.168 (at node 28)
Injected packet length average = 1
Accepted packet length average = 1
Total in-flight flits = 83 (83 measured)
====== Peak Queue Occupancy Statistics (Absolute Max) ======
  Overall Max VC Occupancy = 1
  Overall Max Buffer Occupancy = 3
latency change    = 0.0974582
throughput change = 0.510508
Class 0:
Packet latency average = 13.0032
	minimum = 10
	maximum = 23
	95th percentile = 18.5
	99th percentile = 20.5
Network latency average = 13.0032
	minimum = 10
	maximum = 23
	95th percentile = 18.5
	99th percentile = 20.5
Slowest packet = 33180
Flit latency average = 13.0006
	minimum = 10
	maximum = 23
	95th percentile = 18.5
	99th percentile = 20.5
Slowest flit = 33180
Fragmentation average = 0
	minimum = 0
	maximum = 0
Injected packet rate average = 0.175509
	minimum = 0.1635 (at node 18)
	maximum = 0.1875 (at node 15)
Accepted packet rate average = 0.175171
	minimum = 0.163167 (at node 21)
	maximum = 0.187167 (at node 9)
Injected flit rate average = 0.175509
	minimum = 0.1635 (at node 18)
	maximum = 0.1875 (at node 15)
Accepted flit rate average= 0.175171
	minimum = 0.163167 (at node 21)
	maximum = 0.187167 (at node 9)
Injected packet length average = 1
Accepted packet length average = 1
Total in-flight flits = 114 (114 measured)
====== Peak Queue Occupancy Statistics (Absolute Max) ======
  Overall Max VC Occupancy = 1
  Overall Max Buffer Occupancy = 3
latency change    = 0.127701
throughput change = 0.139784
Class 0:
Packet latency average = 14.2862
	minimum = 10
	maximum = 25
	95th percentile = 19.5
	99th percentile = 21.5
Network latency average = 14.2862
	minimum = 10
	maximum = 25
	95th percentile = 19.5
	99th percentile = 21.5
Slowest packet = 61747
Flit latency average = 14.2838
	minimum = 10
	maximum = 25
	95th percentile = 19.5
	99th percentile = 21.5
Slowest flit = 61747
Fragmentation average = 0
	minimum = 0
	maximum = 0
Injected packet rate average = 0.200049
	minimum = 0.193444 (at node 9)
	maximum = 0.210778 (at node 15)
Accepted packet rate average = 0.19975
	minimum = 0.193333 (at node 21)
	maximum = 0.210778 (at node 9)
Injected flit rate average = 0.200049
	minimum = 0.193444 (at node 9)
	maximum = 0.210778 (at node 15)
Accepted flit rate average= 0.19975
	minimum = 0.193333 (at node 21)
	maximum = 0.210778 (at node 9)
Injected packet length average = 1
Accepted packet length average = 1
Total in-flight flits = 138 (138 measured)
====== Peak Queue Occupancy Statistics (Absolute Max) ======
  Overall Max VC Occupancy = 1
  Overall Max Buffer Occupancy = 3
latency change    = 0.0898032
throughput change = 0.123047
Class 0:
Packet latency average = 14.9262
	minimum = 10
	maximum = 26
	95th percentile = 19.5
	99th percentile = 21.5
Network latency average = 14.9262
	minimum = 10
	maximum = 26
	95th percentile = 19.5
	99th percentile = 21.5
Slowest packet = 102927
Flit latency average = 14.9244
	minimum = 10
	maximum = 26
	95th percentile = 19.5
	99th percentile = 21.5
Slowest flit = 102927
Fragmentation average = 0
	minimum = 0
	maximum = 0
Injected packet rate average = 0.225428
	minimum = 0.217667 (at node 18)
	maximum = 0.236083 (at node 29)
Accepted packet rate average = 0.225132
	minimum = 0.2175 (at node 21)
	maximum = 0.235917 (at node 11)
Injected flit rate average = 0.225428
	minimum = 0.217667 (at node 18)
	maximum = 0.236083 (at node 29)
Accepted flit rate average= 0.225132
	minimum = 0.2175 (at node 21)
	maximum = 0.235917 (at node 11)
Injected packet length average = 1
Accepted packet length average = 1
Total in-flight flits = 169 (169 measured)
====== Peak Queue Occupancy Statistics (Absolute Max) ======
  Overall Max VC Occupancy = 1
  Overall Max Buffer Occupancy = 3
latency change    = 0.0428825
throughput change = 0.112743
Class 0:
Packet latency average = 15.3116
	minimum = 10
	maximum = 27
	95th percentile = 20.5
	99th percentile = 21.5
Network latency average = 15.3116
	minimum = 10
	maximum = 27
	95th percentile = 20.5
	99th percentile = 21.5
Slowest packet = 117056
Flit latency average = 15.3102
	minimum = 10
	maximum = 27
	95th percentile = 20.5
	99th percentile = 21.5
Slowest flit = 117056
Fragmentation average = 0
	minimum = 0
	maximum = 0
Injected packet rate average = 0.250441
	minimum = 0.243 (at node 8)
	maximum = 0.2632 (at node 29)
Accepted packet rate average = 0.250104
	minimum = 0.242667 (at node 26)
	maximum = 0.262667 (at node 11)
Injected flit rate average = 0.250441
	minimum = 0.243 (at node 8)
	maximum = 0.2632 (at node 29)
Accepted flit rate average= 0.250104
	minimum = 0.242667 (at node 26)
	maximum = 0.262667 (at node 11)
Injected packet length average = 1
Accepted packet length average = 1
Total in-flight flits = 223 (223 measured)
====== Peak Queue Occupancy Statistics (Absolute Max) ======
  Overall Max VC Occupancy = 1
  Overall Max Buffer Occupancy = 3
latency change    = 0.0251694
throughput change = 0.0998456
Class 0:
Packet latency average = 15.5721
	minimum = 10
	maximum = 28
	95th percentile = 20.5
	99th percentile = 21.5
Network latency average = 15.5721
	minimum = 10
	maximum = 28
	95th percentile = 20.5
	99th percentile = 21.5
Slowest packet = 190089
Flit latency average = 15.5709
	minimum = 10
	maximum = 28
	95th percentile = 20.5
	99th percentile = 21.5
Slowest flit = 190089
Fragmentation average = 0
	minimum = 0
	maximum = 0
Injected packet rate average = 0.275145
	minimum = 0.266833 (at node 9)
	maximum = 0.285556 (at node 29)
Accepted packet rate average = 0.274855
	minimum = 0.266556 (at node 12)
	maximum = 0.285111 (at node 11)
Injected flit rate average = 0.275145
	minimum = 0.266833 (at node 9)
	maximum = 0.285556 (at node 29)
Accepted flit rate average= 0.274855
	minimum = 0.266556 (at node 12)
	maximum = 0.285111 (at node 11)
Injected packet length average = 1
Accepted packet length average = 1
Total in-flight flits = 229 (229 measured)
====== Peak Queue Occupancy Statistics (Absolute Max) ======
  Overall Max VC Occupancy = 1
  Overall Max Buffer Occupancy = 3
latency change    = 0.0167237
throughput change = 0.090052
Class 0:
Packet latency average = 15.7677
	minimum = 10
	maximum = 28
	95th percentile = 20.5
	99th percentile = 21.5
Network latency average = 15.7677
	minimum = 10
	maximum = 28
	95th percentile = 20.5
	99th percentile = 21.5
Slowest packet = 190089
Flit latency average = 15.7667
	minimum = 10
	maximum = 28
	95th percentile = 20.5
	99th percentile = 21.5
Slowest flit = 190089
Fragmentation average = 0
	minimum = 0
	maximum = 0
Injected packet rate average = 0.299806
	minimum = 0.293238 (at node 9)
	maximum = 0.30881 (at node 29)
Accepted packet rate average = 0.299529
	minimum = 0.293 (at node 12)
	maximum = 0.308476 (at node 11)
Injected flit rate average = 0.299806
	minimum = 0.293238 (at node 9)
	maximum = 0.30881 (at node 29)
Accepted flit rate average= 0.299529
	minimum = 0.293 (at node 12)
	maximum = 0.308476 (at node 11)
Injected packet length average = 1
Accepted packet length average = 1
Total in-flight flits = 250 (250 measured)
====== Peak Queue Occupancy Statistics (Absolute Max) ======
  Overall Max VC Occupancy = 1
  Overall Max Buffer Occupancy = 3
latency change    = 0.0124067
throughput change = 0.0823765
Class 0:
Packet latency average = 15.9265
	minimum = 10
	maximum = 29
	95th percentile = 20.5
	99th percentile = 22.5
Network latency average = 15.9265
	minimum = 10
	maximum = 29
	95th percentile = 20.5
	99th percentile = 22.5
Slowest packet = 271564
Flit latency average = 15.9257
	minimum = 10
	maximum = 29
	95th percentile = 20.5
	99th percentile = 22.5
Slowest flit = 271564
Fragmentation average = 0
	minimum = 0
	maximum = 0
Injected packet rate average = 0.325003
	minimum = 0.319583 (at node 9)
	maximum = 0.333792 (at node 29)
Accepted packet rate average = 0.324686
	minimum = 0.319333 (at node 12)
	maximum = 0.333458 (at node 11)
Injected flit rate average = 0.325003
	minimum = 0.319583 (at node 9)
	maximum = 0.333792 (at node 29)
Accepted flit rate average= 0.324686
	minimum = 0.319333 (at node 12)
	maximum = 0.333458 (at node 11)
Injected packet length average = 1
Accepted packet length average = 1
Total in-flight flits = 315 (315 measured)
====== Peak Queue Occupancy Statistics (Absolute Max) ======
  Overall Max VC Occupancy = 1
  Overall Max Buffer Occupancy = 3
latency change    = 0.00997182
throughput change = 0.0774817
Class 0:
Packet latency average = 16.059
	minimum = 10
	maximum = 31
	95th percentile = 20.5
	99th percentile = 22.5
Network latency average = 16.059
	minimum = 10
	maximum = 31
	95th percentile = 20.5
	99th percentile = 22.5
Slowest packet = 319049
Flit latency average = 16.0584
	minimum = 10
	maximum = 31
	95th percentile = 20.5
	99th percentile = 22.5
Slowest flit = 319049
Fragmentation average = 0
	minimum = 0
	maximum = 0
Injected packet rate average = 0.349794
	minimum = 0.344481 (at node 9)
	maximum = 0.358296 (at node 29)
Accepted packet rate average = 0.349507
	minimum = 0.344333 (at node 12)
	maximum = 0.357926 (at node 11)
Injected flit rate average = 0.349794
	minimum = 0.344481 (at node 9)
	maximum = 0.358296 (at node 29)
Accepted flit rate average= 0.349507
	minimum = 0.344333 (at node 12)
	maximum = 0.357926 (at node 11)
Injected packet length average = 1
Accepted packet length average = 1
Total in-flight flits = 320 (320 measured)
====== Peak Queue Occupancy Statistics (Absolute Max) ======
  Overall Max VC Occupancy = 1
  Overall Max Buffer Occupancy = 3
latency change    = 0.00825215
throughput change = 0.0710167
Class 0:
Packet latency average = 16.1789
	minimum = 10
	maximum = 31
	95th percentile = 20.5
	99th percentile = 22.5
Network latency average = 16.1789
	minimum = 10
	maximum = 31
	95th percentile = 20.5
	99th percentile = 22.5
Slowest packet = 319049
Flit latency average = 16.1783
	minimum = 10
	maximum = 31
	95th percentile = 20.5
	99th percentile = 22.5
Slowest flit = 319049
Fragmentation average = 0
	minimum = 0
	maximum = 0
Injected packet rate average = 0.374723
	minimum = 0.369667 (at node 9)
	maximum = 0.382333 (at node 29)
Accepted packet rate average = 0.374423
	minimum = 0.369367 (at node 12)
	maximum = 0.381833 (at node 11)
Injected flit rate average = 0.374723
	minimum = 0.369667 (at node 9)
	maximum = 0.382333 (at node 29)
Accepted flit rate average= 0.374423
	minimum = 0.369367 (at node 12)
	maximum = 0.381833 (at node 11)
Injected packet length average = 1
Accepted packet length average = 1
Total in-flight flits = 365 (365 measured)
====== Peak Queue Occupancy Statistics (Absolute Max) ======
  Overall Max VC Occupancy = 1
  Overall Max Buffer Occupancy = 4
latency change    = 0.00740804
throughput change = 0.0665449
Class 0:
Packet latency average = 16.2917
	minimum = 10
	maximum = 31
	95th percentile = 21.5
	99th percentile = 22.5
Network latency average = 16.2917
	minimum = 10
	maximum = 31
	95th percentile = 21.5
	99th percentile = 22.5
Slowest packet = 319049
Flit latency average = 16.2912
	minimum = 10
	maximum = 31
	95th percentile = 21.5
	99th percentile = 22.5
Slowest flit = 319049
Fragmentation average = 0
	minimum = 0
	maximum = 0
Injected packet rate average = 0.399683
	minimum = 0.394788 (at node 9)
	maximum = 0.407606 (at node 29)
Accepted packet rate average = 0.399399
	minimum = 0.394485 (at node 12)
	maximum = 0.407182 (at node 11)
Injected flit rate average = 0.399683
	minimum = 0.394788 (at node 9)
	maximum = 0.407606 (at node 29)
Accepted flit rate average= 0.399399
	minimum = 0.394485 (at node 12)
	maximum = 0.407182 (at node 11)
Injected packet length average = 1
Accepted packet length average = 1
Total in-flight flits = 378 (378 measured)
====== Peak Queue Occupancy Statistics (Absolute Max) ======
  Overall Max VC Occupancy = 1
  Overall Max Buffer Occupancy = 4
latency change    = 0.00692431
throughput change = 0.0625336
Class 0:
Packet latency average = 16.4052
	minimum = 10
	maximum = 39
	95th percentile = 21.5
	99th percentile = 22.5
Network latency average = 16.4052
	minimum = 10
	maximum = 39
	95th percentile = 21.5
	99th percentile = 22.5
Slowest packet = 527384
Flit latency average = 16.4047
	minimum = 10
	maximum = 39
	95th percentile = 21.5
	99th percentile = 22.5
Slowest flit = 527384
Fragmentation average = 0
	minimum = 0
	maximum = 0
Injected packet rate average = 0.42483
	minimum = 0.420111 (at node 9)
	maximum = 0.432278 (at node 29)
Accepted packet rate average = 0.424526
	minimum = 0.419833 (at node 12)
	maximum = 0.431917 (at node 11)
Injected flit rate average = 0.42483
	minimum = 0.420111 (at node 9)
	maximum = 0.432278 (at node 29)
Accepted flit rate average= 0.424526
	minimum = 0.419833 (at node 12)
	maximum = 0.431917 (at node 11)
Injected packet length average = 1
Accepted packet length average = 1
Total in-flight flits = 435 (435 measured)
====== Peak Queue Occupancy Statistics (Absolute Max) ======
  Overall Max VC Occupancy = 1
  Overall Max Buffer Occupancy = 4
latency change    = 0.00691749
throughput change = 0.0591889
Class 0:
Packet latency average = 16.5199
	minimum = 10
	maximum = 39
	95th percentile = 21.5
	99th percentile = 23.5
Network latency average = 16.5199
	minimum = 10
	maximum = 39
	95th percentile = 21.5
	99th percentile = 23.5
Slowest packet = 527384
Flit latency average = 16.5196
	minimum = 10
	maximum = 39
	95th percentile = 21.5
	99th percentile = 23.5
Slowest flit = 527384
Fragmentation average = 0
	minimum = 0
	maximum = 0
Injected packet rate average = 0.449887
	minimum = 0.445026 (at node 7)
	maximum = 0.457179 (at node 29)
Accepted packet rate average = 0.449583
	minimum = 0.444667 (at node 16)
	maximum = 0.456846 (at node 11)
Injected flit rate average = 0.449887
	minimum = 0.445026 (at node 7)
	maximum = 0.457179 (at node 29)
Accepted flit rate average= 0.449583
	minimum = 0.444667 (at node 16)
	maximum = 0.456846 (at node 11)
Injected packet length average = 1
Accepted packet length average = 1
Total in-flight flits = 467 (467 measured)
====== Peak Queue Occupancy Statistics (Absolute Max) ======
  Overall Max VC Occupancy = 1
  Overall Max Buffer Occupancy = 4
latency change    = 0.00694806
throughput change = 0.055734
Class 0:
Packet latency average = 16.6461
	minimum = 10
	maximum = 45
	95th percentile = 21.5
	99th percentile = 23.5
Network latency average = 16.6461
	minimum = 10
	maximum = 45
	95th percentile = 21.5
	99th percentile = 23.5
Slowest packet = 690827
Flit latency average = 16.6457
	minimum = 10
	maximum = 45
	95th percentile = 21.5
	99th percentile = 23.5
Slowest flit = 690827
Fragmentation average = 0
	minimum = 0
	maximum = 0
Injected packet rate average = 0.474945
	minimum = 0.470119 (at node 9)
	maximum = 0.481929 (at node 29)
Accepted packet rate average = 0.47464
	minimum = 0.469857 (at node 12)
	maximum = 0.481595 (at node 11)
Injected flit rate average = 0.474945
	minimum = 0.470119 (at node 9)
	maximum = 0.481929 (at node 29)
Accepted flit rate average= 0.47464
	minimum = 0.469857 (at node 12)
	maximum = 0.481595 (at node 11)
Injected packet length average = 1
Accepted packet length average = 1
Total in-flight flits = 502 (502 measured)
====== Peak Queue Occupancy Statistics (Absolute Max) ======
  Overall Max VC Occupancy = 1
  Overall Max Buffer Occupancy = 4
latency change    = 0.00757756
throughput change = 0.0527913
Class 0:
Packet latency average = 16.7421
	minimum = 10
	maximum = 53
	95th percentile = 21.5
	99th percentile = 23.5
Network latency average = 16.7421
	minimum = 10
	maximum = 53
	95th percentile = 21.5
	99th percentile = 23.5
Slowest packet = 807279
Flit latency average = 16.7418
	minimum = 10
	maximum = 53
	95th percentile = 21.5
	99th percentile = 23.5
Slowest flit = 807279
Fragmentation average = 0
	minimum = 0
	maximum = 0
Injected packet rate average = 0.496604
	minimum = 0.491933 (at node 7)
	maximum = 0.504022 (at node 29)
Accepted packet rate average = 0.496315
	minimum = 0.491667 (at node 16)
	maximum = 0.503667 (at node 11)
Injected flit rate average = 0.496604
	minimum = 0.491933 (at node 7)
	maximum = 0.504022 (at node 29)
Accepted flit rate average= 0.496315
	minimum = 0.491667 (at node 16)
	maximum = 0.503667 (at node 11)
Injected packet length average = 1
Accepted packet length average = 1
Total in-flight flits = 510 (510 measured)
====== Peak Queue Occupancy Statistics (Absolute Max) ======
  Overall Max VC Occupancy = 1
  Overall Max Buffer Occupancy = 4
latency change    = 0.00573668
throughput change = 0.0436711
Class 0:
Packet latency average = 16.8221
	minimum = 10
	maximum = 53
	95th percentile = 21.5
	99th percentile = 24.5
Network latency average = 16.8221
	minimum = 10
	maximum = 53
	95th percentile = 21.5
	99th percentile = 24.5
Slowest packet = 807279
Flit latency average = 16.8218
	minimum = 10
	maximum = 53
	95th percentile = 21.5
	99th percentile = 24.5
Slowest flit = 807279
Fragmentation average = 0
	minimum = 0
	maximum = 0
Injected packet rate average = 0.515683
	minimum = 0.510813 (at node 9)
	maximum = 0.5235 (at node 29)
Accepted packet rate average = 0.5154
	minimum = 0.510542 (at node 12)
	maximum = 0.523229 (at node 11)
Injected flit rate average = 0.515683
	minimum = 0.510813 (at node 9)
	maximum = 0.5235 (at node 29)
Accepted flit rate average= 0.5154
	minimum = 0.510542 (at node 12)
	maximum = 0.523229 (at node 11)
Injected packet length average = 1
Accepted packet length average = 1
Total in-flight flits = 529 (529 measured)
====== Peak Queue Occupancy Statistics (Absolute Max) ======
  Overall Max VC Occupancy = 1
  Overall Max Buffer Occupancy = 4
latency change    = 0.00475303
throughput change = 0.0370307
Class 0:
Packet latency average = 16.8848
	minimum = 10
	maximum = 53
	95th percentile = 21.5
	99th percentile = 24.5
Network latency average = 16.8848
	minimum = 10
	maximum = 53
	95th percentile = 21.5
	99th percentile = 24.5
Slowest packet = 807279
Flit latency average = 16.8845
	minimum = 10
	maximum = 53
	95th percentile = 21.5
	99th percentile = 24.5
Slowest flit = 807279
Fragmentation average = 0
	minimum = 0
	maximum = 0
Injected packet rate average = 0.53238
	minimum = 0.527098 (at node 9)
	maximum = 0.53998 (at node 29)
Accepted packet rate average = 0.532122
	minimum = 0.526863 (at node 12)
	maximum = 0.539745 (at node 11)
Injected flit rate average = 0.53238
	minimum = 0.527098 (at node 9)
	maximum = 0.53998 (at node 29)
Accepted flit rate average= 0.532122
	minimum = 0.526863 (at node 12)
	maximum = 0.539745 (at node 11)
Injected packet length average = 1
Accepted packet length average = 1
Total in-flight flits = 515 (515 measured)
====== Peak Queue Occupancy Statistics (Absolute Max) ======
  Overall Max VC Occupancy = 1
  Overall Max Buffer Occupancy = 4
latency change    = 0.00371425
throughput change = 0.0314243
Draining all recorded packets ...
Draining remaining packets ...
Time taken is 57048 cycles
====== Overall Traffic Statistics ======
====== Traffic class 0 ======
Packet latency average = 16.8855 (1 samples)
	minimum = 10 (1 samples)
	maximum = 53 (1 samples)
Network latency average = 16.8855 (1 samples)
	minimum = 10 (1 samples)
	maximum = 53 (1 samples)
Flit latency average = 16.8856 (1 samples)
	minimum = 10 (1 samples)
	maximum = 53 (1 samples)
Fragmentation average = 0 (1 samples)
	minimum = 0 (1 samples)
	maximum = 0 (1 samples)
Injected packet rate average = 0.53238 (1 samples)
	minimum = 0.527098 (1 samples)
	maximum = 0.53998 (1 samples)
Accepted packet rate average = 0.532122 (1 samples)
	minimum = 0.526863 (1 samples)
	maximum = 0.539745 (1 samples)
Injected flit rate average = 0.53238 (1 samples)
	minimum = 0.527098 (1 samples)
	maximum = 0.53998 (1 samples)
Accepted flit rate average = 0.532122 (1 samples)
	minimum = 0.526863 (1 samples)
	maximum = 0.539745 (1 samples)
Injected packet size average = 1 (1 samples)
Accepted packet size average = 1 (1 samples)
Hops average = 3.41649 (1 samples)
Total run time 52.9912
====== DFM Hybrid Routing Split Statistics ======
DR packets = 31787
DSL packets = 962287
DR fraction = 0.0319765
DSL fraction = 0.968024
DFM Flow (0 -> 3) alpha=1 dr_packets=600 dsl_packets=27024 dsl_fraction=0.97828
DFM Flow (1 -> 10) alpha=1 dr_packets=1137 dsl_packets=26418 dsl_fraction=0.958737
DFM Flow (2 -> 20) alpha=1 dr_packets=869 dsl_packets=26687 dsl_fraction=0.968464
DFM Flow (3 -> 6) alpha=1 dr_packets=946 dsl_packets=26545 dsl_fraction=0.965589
DFM Flow (4 -> 13) alpha=1 dr_packets=996 dsl_packets=26731 dsl_fraction=0.964078
DFM Flow (5 -> 23) alpha=1 dr_packets=603 dsl_packets=26876 dsl_fraction=0.978056
DFM Flow (6 -> 0) alpha=1 dr_packets=551 dsl_packets=26918 dsl_fraction=0.979941
DFM Flow (7 -> 16) alpha=1 dr_packets=1069 dsl_packets=26346 dsl_fraction=0.961007
DFM Flow (8 -> 26) alpha=1 dr_packets=1198 dsl_packets=26288 dsl_fraction=0.956414
DFM Flow (9 -> 12) alpha=1 dr_packets=449 dsl_packets=26899 dsl_fraction=0.983582
DFM Flow (10 -> 28) alpha=1 dr_packets=1172 dsl_packets=26492 dsl_fraction=0.957634
DFM Flow (11 -> 2) alpha=1 dr_packets=1359 dsl_packets=26367 dsl_fraction=0.950985
DFM Flow (12 -> 15) alpha=1 dr_packets=505 dsl_packets=27016 dsl_fraction=0.98165
DFM Flow (13 -> 31) alpha=1 dr_packets=1188 dsl_packets=26550 dsl_fraction=0.957171
DFM Flow (14 -> 5) alpha=1 dr_packets=1155 dsl_packets=26432 dsl_fraction=0.958132
DFM Flow (15 -> 9) alpha=1 dr_packets=533 dsl_packets=27017 dsl_fraction=0.980653
DFM Flow (16 -> 34) alpha=1 dr_packets=1171 dsl_packets=26430 dsl_fraction=0.957574
DFM Flow (17 -> 8) alpha=1 dr_packets=1242 dsl_packets=26426 dsl_fraction=0.955111
DFM Flow (18 -> 21) alpha=1 dr_packets=53 dsl_packets=27488 dsl_fraction=0.998076
DFM Flow (19 -> 1) alpha=1 dr_packets=942 dsl_packets=26644 dsl_fraction=0.965852
DFM Flow (20 -> 29) alpha=1 dr_packets=954 dsl_packets=26653 dsl_fraction=0.965444
DFM Flow (21 -> 24) alpha=1 dr_packets=442 dsl_packets=27327 dsl_fraction=0.984083
DFM Flow (22 -> 4) alpha=1 dr_packets=913 dsl_packets=26699 dsl_fraction=0.966935
DFM Flow (23 -> 32) alpha=1 dr_packets=631 dsl_packets=27011 dsl_fraction=0.977172
DFM Flow (24 -> 18) alpha=1 dr_packets=46 dsl_packets=27594 dsl_fraction=0.998336
DFM Flow (25 -> 7) alpha=1 dr_packets=783 dsl_packets=26807 dsl_fraction=0.97162
DFM Flow (26 -> 35) alpha=1 dr_packets=1086 dsl_packets=26469 dsl_fraction=0.960588
DFM Flow (27 -> 30) alpha=1 dr_packets=1016 dsl_packets=26748 dsl_fraction=0.963406
DFM Flow (28 -> 19) alpha=1 dr_packets=1004 dsl_packets=26545 dsl_fraction=0.963556
DFM Flow (29 -> 11) alpha=1 dr_packets=1493 dsl_packets=26491 dsl_fraction=0.946648
DFM Flow (30 -> 33) alpha=1 dr_packets=601 dsl_packets=26886 dsl_fraction=0.978135
DFM Flow (31 -> 22) alpha=1 dr_packets=1100 dsl_packets=26585 dsl_fraction=0.960267
DFM Flow (32 -> 14) alpha=1 dr_packets=1473 dsl_packets=26209 dsl_fraction=0.946789
DFM Flow (33 -> 27) alpha=1 dr_packets=553 dsl_packets=27097 dsl_fraction=0.98
DFM Flow (34 -> 25) alpha=1 dr_packets=769 dsl_packets=27081 dsl_fraction=0.972388
DFM Flow (35 -> 17) alpha=1 dr_packets=1185 dsl_packets=26491 dsl_fraction=0.957183
====== DFM Hybrid Routing Window Statistics ======
Window 0 DR packets=5125 DSL packets=174 DSL fraction=0.0328364
Window 1 DR packets=9980 DSL packets=694 DSL fraction=0.0650178
Window 2 DR packets=11222 DSL packets=5094 DSL fraction=0.312209
Window 3 DR packets=5345 DSL packets=16249 DSL fraction=0.752478
Window 4 DR packets=115 DSL packets=26791 DSL fraction=0.995726
Window 5 DR packets=0 DSL packets=32569 DSL fraction=1
Window 6 DR packets=0 DSL packets=37853 DSL fraction=1
Window 7 DR packets=0 DSL packets=43056 DSL fraction=1
Window 8 DR packets=0 DSL packets=48359 DSL fraction=1
Window 9 DR packets=0 DSL packets=54150 DSL fraction=1
Window 10 DR packets=0 DSL packets=59197 DSL fraction=1
Window 11 DR packets=0 DSL packets=64701 DSL fraction=1
Window 12 DR packets=0 DSL packets=70122 DSL fraction=1
Window 13 DR packets=0 DSL packets=75757 DSL fraction=1
Window 14 DR packets=0 DSL packets=81061 DSL fraction=1
Window 15 DR packets=0 DSL packets=86476 DSL fraction=1
Window 16 DR packets=0 DSL packets=86382 DSL fraction=1
Window 17 DR packets=0 DSL packets=86601 DSL fraction=1
Window 18 DR packets=0 DSL packets=86350 DSL fraction=1
Window 19 DR packets=0 DSL packets=651 DSL fraction=1
====== Observed Edge Statistics ======
edge_capacity = 1
Edge (0 -> 1) dst_input_port=2 max_buffer_ratio=1 buffer_over_90_fraction=0.0248585 buffer_full_fraction=0.0248585 max_full_streak=3 edge_capacity=0.444444 max_edge_load=0.181 max_edge_utilization=0.40725 total_traversals=5964 buffer_exploded=1 load_exceeded_capacity=0
Edge (0 -> 2) dst_input_port=2 max_buffer_ratio=1 buffer_over_90_fraction=0.011881 buffer_full_fraction=0.011881 max_full_streak=4 edge_capacity=0.444444 max_edge_load=0.183 max_edge_utilization=0.41175 total_traversals=5933 buffer_exploded=1 load_exceeded_capacity=0
Edge (0 -> 3) dst_input_port=2 max_buffer_ratio=1 buffer_over_90_fraction=0.0190287 buffer_full_fraction=0.0190287 max_full_streak=5 edge_capacity=0.444444 max_edge_load=0.183 max_edge_utilization=0.41175 total_traversals=6606 buffer_exploded=1 load_exceeded_capacity=0
Edge (0 -> 4) dst_input_port=2 max_buffer_ratio=1 buffer_over_90_fraction=0.0153053 buffer_full_fraction=0.0153053 max_full_streak=3 edge_capacity=0.444444 max_edge_load=0.181 max_edge_utilization=0.40725 total_traversals=5970 buffer_exploded=1 load_exceeded_capacity=0
Edge (0 -> 5) dst_input_port=2 max_buffer_ratio=1 buffer_over_90_fraction=0.0277461 buffer_full_fraction=0.0277461 max_full_streak=8 edge_capacity=0.444444 max_edge_load=0.181 max_edge_utilization=0.40725 total_traversals=5940 buffer_exploded=1 load_exceeded_capacity=0
Edge (0 -> 6) dst_input_port=2 max_buffer_ratio=1 buffer_over_90_fraction=0.0227305 buffer_full_fraction=0.0227305 max_full_streak=5 edge_capacity=0.444444 max_edge_load=0.182 max_edge_utilization=0.4095 total_traversals=5952 buffer_exploded=1 load_exceeded_capacity=0
Edge (0 -> 7) dst_input_port=2 max_buffer_ratio=1 buffer_over_90_fraction=0.0446495 buffer_full_fraction=0.0446495 max_full_streak=5 edge_capacity=0.444444 max_edge_load=0.181 max_edge_utilization=0.40725 total_traversals=5981 buffer_exploded=1 load_exceeded_capacity=0
Edge (0 -> 8) dst_input_port=2 max_buffer_ratio=1 buffer_over_90_fraction=0.0461933 buffer_full_fraction=0.0461933 max_full_streak=8 edge_capacity=0.444444 max_edge_load=0.181 max_edge_utilization=0.40725 total_traversals=5939 buffer_exploded=1 load_exceeded_capacity=0
Edge (0 -> 9) dst_input_port=0 max_buffer_ratio=1 buffer_over_90_fraction=0.000476329 buffer_full_fraction=0.000476329 max_full_streak=1 edge_capacity=1 max_edge_load=0.27 max_edge_utilization=0.27 total_traversals=8835 buffer_exploded=1 load_exceeded_capacity=0
Edge (0 -> 18) dst_input_port=0 max_buffer_ratio=1 buffer_over_90_fraction=0.000802874 buffer_full_fraction=0.000802874 max_full_streak=2 edge_capacity=1 max_edge_load=0.27 max_edge_utilization=0.27 total_traversals=8874 buffer_exploded=1 load_exceeded_capacity=0
Edge (1 -> 0) dst_input_port=2 max_buffer_ratio=1 buffer_over_90_fraction=0.0433453 buffer_full_fraction=0.0433453 max_full_streak=6 edge_capacity=0.444444 max_edge_load=0.18 max_edge_utilization=0.405 total_traversals=5927 buffer_exploded=1 load_exceeded_capacity=0
Edge (1 -> 2) dst_input_port=3 max_buffer_ratio=1 buffer_over_90_fraction=0.0287862 buffer_full_fraction=0.0287862 max_full_streak=5 edge_capacity=0.444444 max_edge_load=0.182 max_edge_utilization=0.4095 total_traversals=5866 buffer_exploded=1 load_exceeded_capacity=0
Edge (1 -> 3) dst_input_port=3 max_buffer_ratio=1 buffer_over_90_fraction=0.0392808 buffer_full_fraction=0.0392808 max_full_streak=5 edge_capacity=0.444444 max_edge_load=0.181 max_edge_utilization=0.40725 total_traversals=5938 buffer_exploded=1 load_exceeded_capacity=0
Edge (1 -> 4) dst_input_port=3 max_buffer_ratio=1 buffer_over_90_fraction=0.0158064 buffer_full_fraction=0.0158064 max_full_streak=3 edge_capacity=0.444444 max_edge_load=0.181 max_edge_utilization=0.40725 total_traversals=5902 buffer_exploded=1 load_exceeded_capacity=0
Edge (1 -> 5) dst_input_port=3 max_buffer_ratio=1 buffer_over_90_fraction=0.023845 buffer_full_fraction=0.023845 max_full_streak=4 edge_capacity=0.444444 max_edge_load=0.181 max_edge_utilization=0.40725 total_traversals=5872 buffer_exploded=1 load_exceeded_capacity=0
Edge (1 -> 6) dst_input_port=3 max_buffer_ratio=1 buffer_over_90_fraction=0.0491249 buffer_full_fraction=0.0491249 max_full_streak=6 edge_capacity=0.444444 max_edge_load=0.18 max_edge_utilization=0.405 total_traversals=5885 buffer_exploded=1 load_exceeded_capacity=0
Edge (1 -> 7) dst_input_port=3 max_buffer_ratio=1 buffer_over_90_fraction=0.0170497 buffer_full_fraction=0.0170497 max_full_streak=3 edge_capacity=0.444444 max_edge_load=0.181 max_edge_utilization=0.40725 total_traversals=5914 buffer_exploded=1 load_exceeded_capacity=0
Edge (1 -> 8) dst_input_port=3 max_buffer_ratio=1 buffer_over_90_fraction=0.0421618 buffer_full_fraction=0.0421618 max_full_streak=7 edge_capacity=0.444444 max_edge_load=0.18 max_edge_utilization=0.405 total_traversals=5872 buffer_exploded=1 load_exceeded_capacity=0
Edge (1 -> 10) dst_input_port=0 max_buffer_ratio=1 buffer_over_90_fraction=0.00113971 buffer_full_fraction=0.00113971 max_full_streak=1 edge_capacity=1 max_edge_load=0.269 max_edge_utilization=0.269 total_traversals=9971 buffer_exploded=1 load_exceeded_capacity=0
Edge (1 -> 19) dst_input_port=0 max_buffer_ratio=1 buffer_over_90_fraction=0.00108405 buffer_full_fraction=0.00108405 max_full_streak=1 edge_capacity=1 max_edge_load=0.27 max_edge_utilization=0.27 total_traversals=8874 buffer_exploded=1 load_exceeded_capacity=0
Edge (2 -> 0) dst_input_port=3 max_buffer_ratio=1 buffer_over_90_fraction=0.0284554 buffer_full_fraction=0.0284554 max_full_streak=5 edge_capacity=0.444444 max_edge_load=0.181 max_edge_utilization=0.40725 total_traversals=5957 buffer_exploded=1 load_exceeded_capacity=0
Edge (2 -> 1) dst_input_port=3 max_buffer_ratio=1 buffer_over_90_fraction=0.0169914 buffer_full_fraction=0.0169914 max_full_streak=3 edge_capacity=0.444444 max_edge_load=0.181 max_edge_utilization=0.40725 total_traversals=5927 buffer_exploded=1 load_exceeded_capacity=0
Edge (2 -> 3) dst_input_port=4 max_buffer_ratio=1 buffer_over_90_fraction=0.0290446 buffer_full_fraction=0.0290446 max_full_streak=5 edge_capacity=0.444444 max_edge_load=0.182 max_edge_utilization=0.4095 total_traversals=5968 buffer_exploded=1 load_exceeded_capacity=0
Edge (2 -> 4) dst_input_port=4 max_buffer_ratio=1 buffer_over_90_fraction=0.0284961 buffer_full_fraction=0.0284961 max_full_streak=4 edge_capacity=0.444444 max_edge_load=0.18 max_edge_utilization=0.405 total_traversals=5932 buffer_exploded=1 load_exceeded_capacity=0
Edge (2 -> 5) dst_input_port=4 max_buffer_ratio=1 buffer_over_90_fraction=0.0372472 buffer_full_fraction=0.0372472 max_full_streak=6 edge_capacity=0.444444 max_edge_load=0.18 max_edge_utilization=0.405 total_traversals=5902 buffer_exploded=1 load_exceeded_capacity=0
Edge (2 -> 6) dst_input_port=4 max_buffer_ratio=1 buffer_over_90_fraction=0.0202045 buffer_full_fraction=0.0202045 max_full_streak=3 edge_capacity=0.444444 max_edge_load=0.18 max_edge_utilization=0.405 total_traversals=5914 buffer_exploded=1 load_exceeded_capacity=0
Edge (2 -> 7) dst_input_port=4 max_buffer_ratio=1 buffer_over_90_fraction=0.0321932 buffer_full_fraction=0.0321932 max_full_streak=5 edge_capacity=0.444444 max_edge_load=0.18 max_edge_utilization=0.405 total_traversals=5944 buffer_exploded=1 load_exceeded_capacity=0
Edge (2 -> 8) dst_input_port=4 max_buffer_ratio=1 buffer_over_90_fraction=0.0344569 buffer_full_fraction=0.0344569 max_full_streak=5 edge_capacity=0.444444 max_edge_load=0.18 max_edge_utilization=0.405 total_traversals=5901 buffer_exploded=1 load_exceeded_capacity=0
Edge (2 -> 11) dst_input_port=0 max_buffer_ratio=1 buffer_over_90_fraction=0.000559249 buffer_full_fraction=0.000559249 max_full_streak=1 edge_capacity=1 max_edge_load=0.271 max_edge_utilization=0.271 total_traversals=8834 buffer_exploded=1 load_exceeded_capacity=0
Edge (2 -> 20) dst_input_port=0 max_buffer_ratio=1 buffer_over_90_fraction=0.000772282 buffer_full_fraction=0.000772282 max_full_streak=1 edge_capacity=1 max_edge_load=0.27 max_edge_utilization=0.27 total_traversals=9741 buffer_exploded=1 load_exceeded_capacity=0
Edge (3 -> 0) dst_input_port=4 max_buffer_ratio=1 buffer_over_90_fraction=0.00908327 buffer_full_fraction=0.00908327 max_full_streak=3 edge_capacity=0.444444 max_edge_load=0.182 max_edge_utilization=0.4095 total_traversals=5941 buffer_exploded=1 load_exceeded_capacity=0
Edge (3 -> 1) dst_input_port=4 max_buffer_ratio=1 buffer_over_90_fraction=0.0356395 buffer_full_fraction=0.0356395 max_full_streak=5 edge_capacity=0.444444 max_edge_load=0.181 max_edge_utilization=0.40725 total_traversals=5911 buffer_exploded=1 load_exceeded_capacity=0
Edge (3 -> 2) dst_input_port=4 max_buffer_ratio=1 buffer_over_90_fraction=0.027656 buffer_full_fraction=0.027656 max_full_streak=4 edge_capacity=0.444444 max_edge_load=0.183 max_edge_utilization=0.41175 total_traversals=5879 buffer_exploded=1 load_exceeded_capacity=0
Edge (3 -> 4) dst_input_port=5 max_buffer_ratio=1 buffer_over_90_fraction=0.0407515 buffer_full_fraction=0.0407515 max_full_streak=3 edge_capacity=0.444444 max_edge_load=0.181 max_edge_utilization=0.40725 total_traversals=5916 buffer_exploded=1 load_exceeded_capacity=0
Edge (3 -> 5) dst_input_port=5 max_buffer_ratio=1 buffer_over_90_fraction=0.0609871 buffer_full_fraction=0.0609871 max_full_streak=6 edge_capacity=0.444444 max_edge_load=0.182 max_edge_utilization=0.4095 total_traversals=5886 buffer_exploded=1 load_exceeded_capacity=0
Edge (3 -> 6) dst_input_port=5 max_buffer_ratio=1 buffer_over_90_fraction=0.0211106 buffer_full_fraction=0.0211106 max_full_streak=4 edge_capacity=0.444444 max_edge_load=0.183 max_edge_utilization=0.41175 total_traversals=6846 buffer_exploded=1 load_exceeded_capacity=0
Edge (3 -> 7) dst_input_port=5 max_buffer_ratio=1 buffer_over_90_fraction=0.0407296 buffer_full_fraction=0.0407296 max_full_streak=5 edge_capacity=0.444444 max_edge_load=0.182 max_edge_utilization=0.4095 total_traversals=5928 buffer_exploded=1 load_exceeded_capacity=0
Edge (3 -> 8) dst_input_port=5 max_buffer_ratio=1 buffer_over_90_fraction=0.0215223 buffer_full_fraction=0.0215223 max_full_streak=4 edge_capacity=0.444444 max_edge_load=0.181 max_edge_utilization=0.40725 total_traversals=5885 buffer_exploded=1 load_exceeded_capacity=0
Edge (3 -> 12) dst_input_port=0 max_buffer_ratio=1 buffer_over_90_fraction=0.000662896 buffer_full_fraction=0.000662896 max_full_streak=2 edge_capacity=1 max_edge_load=0.269 max_edge_utilization=0.269 total_traversals=8832 buffer_exploded=1 load_exceeded_capacity=0
Edge (3 -> 21) dst_input_port=0 max_buffer_ratio=1 buffer_over_90_fraction=0.00118491 buffer_full_fraction=0.00118491 max_full_streak=1 edge_capacity=1 max_edge_load=0.27 max_edge_utilization=0.27 total_traversals=8872 buffer_exploded=1 load_exceeded_capacity=0
Edge (4 -> 0) dst_input_port=5 max_buffer_ratio=1 buffer_over_90_fraction=0.0232521 buffer_full_fraction=0.0232521 max_full_streak=4 edge_capacity=0.444444 max_edge_load=0.182 max_edge_utilization=0.4095 total_traversals=5962 buffer_exploded=1 load_exceeded_capacity=0
Edge (4 -> 1) dst_input_port=5 max_buffer_ratio=1 buffer_over_90_fraction=0.00215784 buffer_full_fraction=0.00215784 max_full_streak=4 edge_capacity=0.444444 max_edge_load=0.181 max_edge_utilization=0.40725 total_traversals=5930 buffer_exploded=1 load_exceeded_capacity=0
Edge (4 -> 2) dst_input_port=5 max_buffer_ratio=1 buffer_over_90_fraction=0.0220269 buffer_full_fraction=0.0220269 max_full_streak=4 edge_capacity=0.444444 max_edge_load=0.183 max_edge_utilization=0.41175 total_traversals=5900 buffer_exploded=1 load_exceeded_capacity=0
Edge (4 -> 3) dst_input_port=5 max_buffer_ratio=1 buffer_over_90_fraction=0.0473314 buffer_full_fraction=0.0473314 max_full_streak=5 edge_capacity=0.444444 max_edge_load=0.182 max_edge_utilization=0.4095 total_traversals=5973 buffer_exploded=1 load_exceeded_capacity=0
Edge (4 -> 5) dst_input_port=6 max_buffer_ratio=1 buffer_over_90_fraction=0.0387193 buffer_full_fraction=0.0387193 max_full_streak=3 edge_capacity=0.444444 max_edge_load=0.184 max_edge_utilization=0.414 total_traversals=5907 buffer_exploded=1 load_exceeded_capacity=0
Edge (4 -> 6) dst_input_port=6 max_buffer_ratio=1 buffer_over_90_fraction=0.0236186 buffer_full_fraction=0.0236186 max_full_streak=4 edge_capacity=0.444444 max_edge_load=0.182 max_edge_utilization=0.4095 total_traversals=5919 buffer_exploded=1 load_exceeded_capacity=0
Edge (4 -> 7) dst_input_port=6 max_buffer_ratio=1 buffer_over_90_fraction=0.0138709 buffer_full_fraction=0.0138709 max_full_streak=3 edge_capacity=0.444444 max_edge_load=0.182 max_edge_utilization=0.4095 total_traversals=5949 buffer_exploded=1 load_exceeded_capacity=0
Edge (4 -> 8) dst_input_port=6 max_buffer_ratio=1 buffer_over_90_fraction=0.0300923 buffer_full_fraction=0.0300923 max_full_streak=4 edge_capacity=0.444444 max_edge_load=0.181 max_edge_utilization=0.40725 total_traversals=5906 buffer_exploded=1 load_exceeded_capacity=0
Edge (4 -> 13) dst_input_port=0 max_buffer_ratio=1 buffer_over_90_fraction=0.000632067 buffer_full_fraction=0.000632067 max_full_streak=1 edge_capacity=1 max_edge_load=0.269 max_edge_utilization=0.269 total_traversals=9828 buffer_exploded=1 load_exceeded_capacity=0
Edge (4 -> 22) dst_input_port=0 max_buffer_ratio=1 buffer_over_90_fraction=0.00108451 buffer_full_fraction=0.00108451 max_full_streak=1 edge_capacity=1 max_edge_load=0.271 max_edge_utilization=0.271 total_traversals=8872 buffer_exploded=1 load_exceeded_capacity=0
Edge (5 -> 0) dst_input_port=6 max_buffer_ratio=1 buffer_over_90_fraction=0.0299574 buffer_full_fraction=0.0299574 max_full_streak=4 edge_capacity=0.444444 max_edge_load=0.182 max_edge_utilization=0.4095 total_traversals=5978 buffer_exploded=1 load_exceeded_capacity=0
Edge (5 -> 1) dst_input_port=6 max_buffer_ratio=1 buffer_over_90_fraction=0.0356304 buffer_full_fraction=0.0356304 max_full_streak=6 edge_capacity=0.444444 max_edge_load=0.18 max_edge_utilization=0.405 total_traversals=5947 buffer_exploded=1 load_exceeded_capacity=0
Edge (5 -> 2) dst_input_port=6 max_buffer_ratio=1 buffer_over_90_fraction=0.033593 buffer_full_fraction=0.033593 max_full_streak=5 edge_capacity=0.444444 max_edge_load=0.182 max_edge_utilization=0.4095 total_traversals=5916 buffer_exploded=1 load_exceeded_capacity=0
Edge (5 -> 3) dst_input_port=6 max_buffer_ratio=1 buffer_over_90_fraction=0.0228068 buffer_full_fraction=0.0228068 max_full_streak=4 edge_capacity=0.444444 max_edge_load=0.18 max_edge_utilization=0.405 total_traversals=5989 buffer_exploded=1 load_exceeded_capacity=0
Edge (5 -> 4) dst_input_port=6 max_buffer_ratio=1 buffer_over_90_fraction=0.0193496 buffer_full_fraction=0.0193496 max_full_streak=3 edge_capacity=0.444444 max_edge_load=0.18 max_edge_utilization=0.405 total_traversals=5952 buffer_exploded=1 load_exceeded_capacity=0
Edge (5 -> 6) dst_input_port=7 max_buffer_ratio=1 buffer_over_90_fraction=0.0313523 buffer_full_fraction=0.0313523 max_full_streak=4 edge_capacity=0.444444 max_edge_load=0.181 max_edge_utilization=0.40725 total_traversals=5935 buffer_exploded=1 load_exceeded_capacity=0
Edge (5 -> 7) dst_input_port=7 max_buffer_ratio=1 buffer_over_90_fraction=0.0367358 buffer_full_fraction=0.0367358 max_full_streak=5 edge_capacity=0.444444 max_edge_load=0.182 max_edge_utilization=0.4095 total_traversals=5964 buffer_exploded=1 load_exceeded_capacity=0
Edge (5 -> 8) dst_input_port=7 max_buffer_ratio=1 buffer_over_90_fraction=0.00508246 buffer_full_fraction=0.00508246 max_full_streak=4 edge_capacity=0.444444 max_edge_load=0.18 max_edge_utilization=0.405 total_traversals=5922 buffer_exploded=1 load_exceeded_capacity=0
Edge (5 -> 14) dst_input_port=0 max_buffer_ratio=1 buffer_over_90_fraction=0.00116053 buffer_full_fraction=0.00116053 max_full_streak=1 edge_capacity=1 max_edge_load=0.269 max_edge_utilization=0.269 total_traversals=8832 buffer_exploded=1 load_exceeded_capacity=0
Edge (5 -> 23) dst_input_port=0 max_buffer_ratio=1 buffer_over_90_fraction=0.000719033 buffer_full_fraction=0.000719033 max_full_streak=1 edge_capacity=1 max_edge_load=0.271 max_edge_utilization=0.271 total_traversals=9475 buffer_exploded=1 load_exceeded_capacity=0
Edge (6 -> 0) dst_input_port=7 max_buffer_ratio=1 buffer_over_90_fraction=0.0190055 buffer_full_fraction=0.0190055 max_full_streak=4 edge_capacity=0.444444 max_edge_load=0.186 max_edge_utilization=0.4185 total_traversals=6533 buffer_exploded=1 load_exceeded_capacity=0
Edge (6 -> 1) dst_input_port=7 max_buffer_ratio=1 buffer_over_90_fraction=0.0317267 buffer_full_fraction=0.0317267 max_full_streak=4 edge_capacity=0.444444 max_edge_load=0.181 max_edge_utilization=0.40725 total_traversals=5951 buffer_exploded=1 load_exceeded_capacity=0
Edge (6 -> 2) dst_input_port=7 max_buffer_ratio=1 buffer_over_90_fraction=0.0237943 buffer_full_fraction=0.0237943 max_full_streak=4 edge_capacity=0.444444 max_edge_load=0.183 max_edge_utilization=0.41175 total_traversals=5920 buffer_exploded=1 load_exceeded_capacity=0
Edge (6 -> 3) dst_input_port=7 max_buffer_ratio=1 buffer_over_90_fraction=0.0238467 buffer_full_fraction=0.0238467 max_full_streak=3 edge_capacity=0.444444 max_edge_load=0.181 max_edge_utilization=0.40725 total_traversals=5993 buffer_exploded=1 load_exceeded_capacity=0
Edge (6 -> 4) dst_input_port=7 max_buffer_ratio=1 buffer_over_90_fraction=0.0295941 buffer_full_fraction=0.0295941 max_full_streak=4 edge_capacity=0.444444 max_edge_load=0.181 max_edge_utilization=0.40725 total_traversals=5957 buffer_exploded=1 load_exceeded_capacity=0
Edge (6 -> 5) dst_input_port=7 max_buffer_ratio=1 buffer_over_90_fraction=0.0431416 buffer_full_fraction=0.0431416 max_full_streak=6 edge_capacity=0.444444 max_edge_load=0.181 max_edge_utilization=0.40725 total_traversals=5928 buffer_exploded=1 load_exceeded_capacity=0
Edge (6 -> 7) dst_input_port=8 max_buffer_ratio=1 buffer_over_90_fraction=0.0636156 buffer_full_fraction=0.0636156 max_full_streak=5 edge_capacity=0.444444 max_edge_load=0.181 max_edge_utilization=0.40725 total_traversals=5969 buffer_exploded=1 load_exceeded_capacity=0
Edge (6 -> 8) dst_input_port=8 max_buffer_ratio=1 buffer_over_90_fraction=0.0181793 buffer_full_fraction=0.0181793 max_full_streak=4 edge_capacity=0.444444 max_edge_load=0.181 max_edge_utilization=0.40725 total_traversals=5926 buffer_exploded=1 load_exceeded_capacity=0
Edge (6 -> 15) dst_input_port=0 max_buffer_ratio=1 buffer_over_90_fraction=0.000787548 buffer_full_fraction=0.000787548 max_full_streak=1 edge_capacity=1 max_edge_load=0.269 max_edge_utilization=0.269 total_traversals=8832 buffer_exploded=1 load_exceeded_capacity=0
Edge (6 -> 24) dst_input_port=0 max_buffer_ratio=1 buffer_over_90_fraction=0.000542332 buffer_full_fraction=0.000542332 max_full_streak=1 edge_capacity=1 max_edge_load=0.271 max_edge_utilization=0.271 total_traversals=8872 buffer_exploded=1 load_exceeded_capacity=0
Edge (7 -> 0) dst_input_port=8 max_buffer_ratio=1 buffer_over_90_fraction=0.021934 buffer_full_fraction=0.021934 max_full_streak=5 edge_capacity=0.444444 max_edge_load=0.182 max_edge_utilization=0.4095 total_traversals=5919 buffer_exploded=1 load_exceeded_capacity=0
Edge (7 -> 1) dst_input_port=8 max_buffer_ratio=1 buffer_over_90_fraction=0.0437367 buffer_full_fraction=0.0437367 max_full_streak=3 edge_capacity=0.444444 max_edge_load=0.179 max_edge_utilization=0.40275 total_traversals=5888 buffer_exploded=1 load_exceeded_capacity=0
Edge (7 -> 2) dst_input_port=8 max_buffer_ratio=1 buffer_over_90_fraction=0.0188265 buffer_full_fraction=0.0188265 max_full_streak=4 edge_capacity=0.444444 max_edge_load=0.182 max_edge_utilization=0.4095 total_traversals=5857 buffer_exploded=1 load_exceeded_capacity=0
Edge (7 -> 3) dst_input_port=8 max_buffer_ratio=1 buffer_over_90_fraction=0.0171527 buffer_full_fraction=0.0171527 max_full_streak=3 edge_capacity=0.444444 max_edge_load=0.18 max_edge_utilization=0.405 total_traversals=5929 buffer_exploded=1 load_exceeded_capacity=0
Edge (7 -> 4) dst_input_port=8 max_buffer_ratio=1 buffer_over_90_fraction=0.0283755 buffer_full_fraction=0.0283755 max_full_streak=5 edge_capacity=0.444444 max_edge_load=0.182 max_edge_utilization=0.4095 total_traversals=5893 buffer_exploded=1 load_exceeded_capacity=0
Edge (7 -> 5) dst_input_port=8 max_buffer_ratio=1 buffer_over_90_fraction=0.0262754 buffer_full_fraction=0.0262754 max_full_streak=7 edge_capacity=0.444444 max_edge_load=0.18 max_edge_utilization=0.405 total_traversals=5864 buffer_exploded=1 load_exceeded_capacity=0
Edge (7 -> 6) dst_input_port=8 max_buffer_ratio=1 buffer_over_90_fraction=0.0240597 buffer_full_fraction=0.0240597 max_full_streak=3 edge_capacity=0.444444 max_edge_load=0.181 max_edge_utilization=0.40725 total_traversals=5876 buffer_exploded=1 load_exceeded_capacity=0
Edge (7 -> 8) dst_input_port=9 max_buffer_ratio=1 buffer_over_90_fraction=0.0149709 buffer_full_fraction=0.0149709 max_full_streak=3 edge_capacity=0.444444 max_edge_load=0.18 max_edge_utilization=0.405 total_traversals=5863 buffer_exploded=1 load_exceeded_capacity=0
Edge (7 -> 16) dst_input_port=0 max_buffer_ratio=1 buffer_over_90_fraction=0.00024558 buffer_full_fraction=0.00024558 max_full_streak=1 edge_capacity=1 max_edge_load=0.269 max_edge_utilization=0.269 total_traversals=9901 buffer_exploded=1 load_exceeded_capacity=0
Edge (7 -> 25) dst_input_port=0 max_buffer_ratio=1 buffer_over_90_fraction=0.000783384 buffer_full_fraction=0.000783384 max_full_streak=1 edge_capacity=1 max_edge_load=0.27 max_edge_utilization=0.27 total_traversals=8872 buffer_exploded=1 load_exceeded_capacity=0
Edge (8 -> 0) dst_input_port=9 max_buffer_ratio=1 buffer_over_90_fraction=0.0182408 buffer_full_fraction=0.0182408 max_full_streak=4 edge_capacity=0.444444 max_edge_load=0.183 max_edge_utilization=0.41175 total_traversals=5911 buffer_exploded=1 load_exceeded_capacity=0
Edge (8 -> 1) dst_input_port=9 max_buffer_ratio=1 buffer_over_90_fraction=0.0384981 buffer_full_fraction=0.0384981 max_full_streak=3 edge_capacity=0.444444 max_edge_load=0.179 max_edge_utilization=0.40275 total_traversals=5881 buffer_exploded=1 load_exceeded_capacity=0
Edge (8 -> 2) dst_input_port=9 max_buffer_ratio=1 buffer_over_90_fraction=0.013178 buffer_full_fraction=0.013178 max_full_streak=3 edge_capacity=0.444444 max_edge_load=0.183 max_edge_utilization=0.41175 total_traversals=5850 buffer_exploded=1 load_exceeded_capacity=0
Edge (8 -> 3) dst_input_port=9 max_buffer_ratio=1 buffer_over_90_fraction=0.0306845 buffer_full_fraction=0.0306845 max_full_streak=4 edge_capacity=0.444444 max_edge_load=0.181 max_edge_utilization=0.40725 total_traversals=5923 buffer_exploded=1 load_exceeded_capacity=0
Edge (8 -> 4) dst_input_port=9 max_buffer_ratio=1 buffer_over_90_fraction=0.0290765 buffer_full_fraction=0.0290765 max_full_streak=5 edge_capacity=0.444444 max_edge_load=0.182 max_edge_utilization=0.4095 total_traversals=5887 buffer_exploded=1 load_exceeded_capacity=0
Edge (8 -> 5) dst_input_port=9 max_buffer_ratio=1 buffer_over_90_fraction=0.0431467 buffer_full_fraction=0.0431467 max_full_streak=6 edge_capacity=0.444444 max_edge_load=0.18 max_edge_utilization=0.405 total_traversals=5857 buffer_exploded=1 load_exceeded_capacity=0
Edge (8 -> 6) dst_input_port=9 max_buffer_ratio=1 buffer_over_90_fraction=0.0251778 buffer_full_fraction=0.0251778 max_full_streak=3 edge_capacity=0.444444 max_edge_load=0.181 max_edge_utilization=0.40725 total_traversals=5870 buffer_exploded=1 load_exceeded_capacity=0
Edge (8 -> 7) dst_input_port=9 max_buffer_ratio=1 buffer_over_90_fraction=0.0195668 buffer_full_fraction=0.0195668 max_full_streak=4 edge_capacity=0.444444 max_edge_load=0.181 max_edge_utilization=0.40725 total_traversals=5899 buffer_exploded=1 load_exceeded_capacity=0
Edge (8 -> 17) dst_input_port=0 max_buffer_ratio=1 buffer_over_90_fraction=0.000705058 buffer_full_fraction=0.000705058 max_full_streak=1 edge_capacity=1 max_edge_load=0.269 max_edge_utilization=0.269 total_traversals=8832 buffer_exploded=1 load_exceeded_capacity=0
Edge (8 -> 26) dst_input_port=0 max_buffer_ratio=1 buffer_over_90_fraction=0.000613691 buffer_full_fraction=0.000613691 max_full_streak=1 edge_capacity=1 max_edge_load=0.269 max_edge_utilization=0.269 total_traversals=10069 buffer_exploded=1 load_exceeded_capacity=0
Edge (9 -> 0) dst_input_port=0 max_buffer_ratio=1 buffer_over_90_fraction=0.00265803 buffer_full_fraction=0.00265803 max_full_streak=1 edge_capacity=1 max_edge_load=0.273 max_edge_utilization=0.273 total_traversals=8804 buffer_exploded=1 load_exceeded_capacity=0
Edge (9 -> 10) dst_input_port=2 max_buffer_ratio=1 buffer_over_90_fraction=0.0175935 buffer_full_fraction=0.0175935 max_full_streak=4 edge_capacity=0.444444 max_edge_load=0.179 max_edge_utilization=0.40275 total_traversals=5925 buffer_exploded=1 load_exceeded_capacity=0
Edge (9 -> 11) dst_input_port=2 max_buffer_ratio=1 buffer_over_90_fraction=0.0370769 buffer_full_fraction=0.0370769 max_full_streak=6 edge_capacity=0.444444 max_edge_load=0.18 max_edge_utilization=0.405 total_traversals=5933 buffer_exploded=1 load_exceeded_capacity=0
Edge (9 -> 12) dst_input_port=2 max_buffer_ratio=1 buffer_over_90_fraction=0.020723 buffer_full_fraction=0.020723 max_full_streak=5 edge_capacity=0.444444 max_edge_load=0.182 max_edge_utilization=0.4095 total_traversals=6427 buffer_exploded=1 load_exceeded_capacity=0
Edge (9 -> 13) dst_input_port=2 max_buffer_ratio=1 buffer_over_90_fraction=0.0247814 buffer_full_fraction=0.0247814 max_full_streak=4 edge_capacity=0.444444 max_edge_load=0.179 max_edge_utilization=0.40275 total_traversals=5960 buffer_exploded=1 load_exceeded_capacity=0
Edge (9 -> 14) dst_input_port=2 max_buffer_ratio=1 buffer_over_90_fraction=0.00496779 buffer_full_fraction=0.00496779 max_full_streak=5 edge_capacity=0.444444 max_edge_load=0.182 max_edge_utilization=0.4095 total_traversals=5902 buffer_exploded=1 load_exceeded_capacity=0
Edge (9 -> 15) dst_input_port=2 max_buffer_ratio=1 buffer_over_90_fraction=0.0425701 buffer_full_fraction=0.0425701 max_full_streak=4 edge_capacity=0.444444 max_edge_load=0.18 max_edge_utilization=0.405 total_traversals=5991 buffer_exploded=1 load_exceeded_capacity=0
Edge (9 -> 16) dst_input_port=2 max_buffer_ratio=1 buffer_over_90_fraction=0.013055 buffer_full_fraction=0.013055 max_full_streak=4 edge_capacity=0.444444 max_edge_load=0.179 max_edge_utilization=0.40275 total_traversals=5916 buffer_exploded=1 load_exceeded_capacity=0
Edge (9 -> 17) dst_input_port=2 max_buffer_ratio=1 buffer_over_90_fraction=0.0304262 buffer_full_fraction=0.0304262 max_full_streak=4 edge_capacity=0.444444 max_edge_load=0.18 max_edge_utilization=0.405 total_traversals=5932 buffer_exploded=1 load_exceeded_capacity=0
Edge (9 -> 27) dst_input_port=0 max_buffer_ratio=1 buffer_over_90_fraction=0.00191762 buffer_full_fraction=0.00191762 max_full_streak=1 edge_capacity=1 max_edge_load=0.272 max_edge_utilization=0.272 total_traversals=8831 buffer_exploded=1 load_exceeded_capacity=0
Edge (10 -> 1) dst_input_port=0 max_buffer_ratio=1 buffer_over_90_fraction=0.00220136 buffer_full_fraction=0.00220136 max_full_streak=2 edge_capacity=1 max_edge_load=0.272 max_edge_utilization=0.272 total_traversals=8804 buffer_exploded=1 load_exceeded_capacity=0
Edge (10 -> 9) dst_input_port=2 max_buffer_ratio=1 buffer_over_90_fraction=0.0454374 buffer_full_fraction=0.0454374 max_full_streak=7 edge_capacity=0.444444 max_edge_load=0.182 max_edge_utilization=0.4095 total_traversals=5946 buffer_exploded=1 load_exceeded_capacity=0
Edge (10 -> 11) dst_input_port=3 max_buffer_ratio=1 buffer_over_90_fraction=0.0258284 buffer_full_fraction=0.0258284 max_full_streak=3 edge_capacity=0.444444 max_edge_load=0.182 max_edge_utilization=0.4095 total_traversals=5888 buffer_exploded=1 load_exceeded_capacity=0
Edge (10 -> 12) dst_input_port=3 max_buffer_ratio=1 buffer_over_90_fraction=0.0157636 buffer_full_fraction=0.0157636 max_full_streak=3 edge_capacity=0.444444 max_edge_load=0.181 max_edge_utilization=0.40725 total_traversals=5933 buffer_exploded=1 load_exceeded_capacity=0
Edge (10 -> 13) dst_input_port=3 max_buffer_ratio=1 buffer_over_90_fraction=0.00764497 buffer_full_fraction=0.00764497 max_full_streak=4 edge_capacity=0.444444 max_edge_load=0.181 max_edge_utilization=0.40725 total_traversals=5914 buffer_exploded=1 load_exceeded_capacity=0
Edge (10 -> 14) dst_input_port=3 max_buffer_ratio=1 buffer_over_90_fraction=0.00322698 buffer_full_fraction=0.00322698 max_full_streak=3 edge_capacity=0.444444 max_edge_load=0.18 max_edge_utilization=0.405 total_traversals=5855 buffer_exploded=1 load_exceeded_capacity=0
Edge (10 -> 15) dst_input_port=3 max_buffer_ratio=1 buffer_over_90_fraction=0.00871896 buffer_full_fraction=0.00871896 max_full_streak=3 edge_capacity=0.444444 max_edge_load=0.181 max_edge_utilization=0.40725 total_traversals=5945 buffer_exploded=1 load_exceeded_capacity=0
Edge (10 -> 16) dst_input_port=3 max_buffer_ratio=1 buffer_over_90_fraction=0.00861623 buffer_full_fraction=0.00861623 max_full_streak=3 edge_capacity=0.444444 max_edge_load=0.183 max_edge_utilization=0.41175 total_traversals=5871 buffer_exploded=1 load_exceeded_capacity=0
Edge (10 -> 17) dst_input_port=3 max_buffer_ratio=1 buffer_over_90_fraction=0.0425673 buffer_full_fraction=0.0425673 max_full_streak=6 edge_capacity=0.444444 max_edge_load=0.181 max_edge_utilization=0.40725 total_traversals=5887 buffer_exploded=1 load_exceeded_capacity=0
Edge (10 -> 28) dst_input_port=0 max_buffer_ratio=1 buffer_over_90_fraction=0.000245532 buffer_full_fraction=0.000245532 max_full_streak=1 edge_capacity=1 max_edge_load=0.273 max_edge_utilization=0.273 total_traversals=10003 buffer_exploded=1 load_exceeded_capacity=0
Edge (11 -> 2) dst_input_port=0 max_buffer_ratio=1 buffer_over_90_fraction=0.000315679 buffer_full_fraction=0.000315679 max_full_streak=1 edge_capacity=1 max_edge_load=0.272 max_edge_utilization=0.272 total_traversals=10162 buffer_exploded=1 load_exceeded_capacity=0
Edge (11 -> 9) dst_input_port=3 max_buffer_ratio=1 buffer_over_90_fraction=0.0382624 buffer_full_fraction=0.0382624 max_full_streak=6 edge_capacity=0.444444 max_edge_load=0.181 max_edge_utilization=0.40725 total_traversals=5932 buffer_exploded=1 load_exceeded_capacity=0
Edge (11 -> 10) dst_input_port=3 max_buffer_ratio=1 buffer_over_90_fraction=0.0303597 buffer_full_fraction=0.0303597 max_full_streak=4 edge_capacity=0.444444 max_edge_load=0.182 max_edge_utilization=0.4095 total_traversals=5866 buffer_exploded=1 load_exceeded_capacity=0
Edge (11 -> 12) dst_input_port=4 max_buffer_ratio=1 buffer_over_90_fraction=0.0442388 buffer_full_fraction=0.0442388 max_full_streak=5 edge_capacity=0.444444 max_edge_load=0.181 max_edge_utilization=0.40725 total_traversals=5919 buffer_exploded=1 load_exceeded_capacity=0
Edge (11 -> 13) dst_input_port=4 max_buffer_ratio=1 buffer_over_90_fraction=0.028838 buffer_full_fraction=0.028838 max_full_streak=4 edge_capacity=0.444444 max_edge_load=0.183 max_edge_utilization=0.41175 total_traversals=5900 buffer_exploded=1 load_exceeded_capacity=0
Edge (11 -> 14) dst_input_port=4 max_buffer_ratio=1 buffer_over_90_fraction=0.00968231 buffer_full_fraction=0.00968231 max_full_streak=3 edge_capacity=0.444444 max_edge_load=0.182 max_edge_utilization=0.4095 total_traversals=5842 buffer_exploded=1 load_exceeded_capacity=0
Edge (11 -> 15) dst_input_port=4 max_buffer_ratio=1 buffer_over_90_fraction=0.00754916 buffer_full_fraction=0.00754916 max_full_streak=3 edge_capacity=0.444444 max_edge_load=0.182 max_edge_utilization=0.4095 total_traversals=5931 buffer_exploded=1 load_exceeded_capacity=0
Edge (11 -> 16) dst_input_port=4 max_buffer_ratio=1 buffer_over_90_fraction=0.00874158 buffer_full_fraction=0.00874158 max_full_streak=4 edge_capacity=0.444444 max_edge_load=0.182 max_edge_utilization=0.4095 total_traversals=5857 buffer_exploded=1 load_exceeded_capacity=0
Edge (11 -> 17) dst_input_port=4 max_buffer_ratio=1 buffer_over_90_fraction=0.00996008 buffer_full_fraction=0.00996008 max_full_streak=5 edge_capacity=0.444444 max_edge_load=0.181 max_edge_utilization=0.40725 total_traversals=5873 buffer_exploded=1 load_exceeded_capacity=0
Edge (11 -> 29) dst_input_port=0 max_buffer_ratio=1 buffer_over_90_fraction=0.000714053 buffer_full_fraction=0.000714053 max_full_streak=1 edge_capacity=1 max_edge_load=0.273 max_edge_utilization=0.273 total_traversals=8831 buffer_exploded=1 load_exceeded_capacity=0
Edge (12 -> 3) dst_input_port=0 max_buffer_ratio=1 buffer_over_90_fraction=0.00178679 buffer_full_fraction=0.00178679 max_full_streak=1 edge_capacity=1 max_edge_load=0.271 max_edge_utilization=0.271 total_traversals=8803 buffer_exploded=1 load_exceeded_capacity=0
Edge (12 -> 9) dst_input_port=4 max_buffer_ratio=1 buffer_over_90_fraction=0.0378498 buffer_full_fraction=0.0378498 max_full_streak=5 edge_capacity=0.444444 max_edge_load=0.18 max_edge_utilization=0.405 total_traversals=6004 buffer_exploded=1 load_exceeded_capacity=0
Edge (12 -> 10) dst_input_port=4 max_buffer_ratio=1 buffer_over_90_fraction=0.0255133 buffer_full_fraction=0.0255133 max_full_streak=5 edge_capacity=0.444444 max_edge_load=0.18 max_edge_utilization=0.405 total_traversals=5937 buffer_exploded=1 load_exceeded_capacity=0
Edge (12 -> 11) dst_input_port=4 max_buffer_ratio=1 buffer_over_90_fraction=0.0297792 buffer_full_fraction=0.0297792 max_full_streak=5 edge_capacity=0.444444 max_edge_load=0.182 max_edge_utilization=0.4095 total_traversals=5946 buffer_exploded=1 load_exceeded_capacity=0
Edge (12 -> 13) dst_input_port=5 max_buffer_ratio=1 buffer_over_90_fraction=0.0162341 buffer_full_fraction=0.0162341 max_full_streak=3 edge_capacity=0.444444 max_edge_load=0.184 max_edge_utilization=0.414 total_traversals=5972 buffer_exploded=1 load_exceeded_capacity=0
Edge (12 -> 14) dst_input_port=5 max_buffer_ratio=1 buffer_over_90_fraction=0.0212003 buffer_full_fraction=0.0212003 max_full_streak=5 edge_capacity=0.444444 max_edge_load=0.18 max_edge_utilization=0.405 total_traversals=5914 buffer_exploded=1 load_exceeded_capacity=0
Edge (12 -> 15) dst_input_port=5 max_buffer_ratio=1 buffer_over_90_fraction=0.0169765 buffer_full_fraction=0.0169765 max_full_streak=7 edge_capacity=0.444444 max_edge_load=0.183 max_edge_utilization=0.41175 total_traversals=6509 buffer_exploded=1 load_exceeded_capacity=0
Edge (12 -> 16) dst_input_port=5 max_buffer_ratio=1 buffer_over_90_fraction=0.0251123 buffer_full_fraction=0.0251123 max_full_streak=4 edge_capacity=0.444444 max_edge_load=0.181 max_edge_utilization=0.40725 total_traversals=5928 buffer_exploded=1 load_exceeded_capacity=0
Edge (12 -> 17) dst_input_port=5 max_buffer_ratio=1 buffer_over_90_fraction=0.0389098 buffer_full_fraction=0.0389098 max_full_streak=4 edge_capacity=0.444444 max_edge_load=0.182 max_edge_utilization=0.4095 total_traversals=5945 buffer_exploded=1 load_exceeded_capacity=0
Edge (12 -> 30) dst_input_port=0 max_buffer_ratio=1 buffer_over_90_fraction=0.000795675 buffer_full_fraction=0.000795675 max_full_streak=2 edge_capacity=1 max_edge_load=0.273 max_edge_utilization=0.273 total_traversals=8831 buffer_exploded=1 load_exceeded_capacity=0
Edge (13 -> 4) dst_input_port=0 max_buffer_ratio=1 buffer_over_90_fraction=0.000664907 buffer_full_fraction=0.000664907 max_full_streak=1 edge_capacity=1 max_edge_load=0.272 max_edge_utilization=0.272 total_traversals=8803 buffer_exploded=1 load_exceeded_capacity=0
Edge (13 -> 9) dst_input_port=5 max_buffer_ratio=1 buffer_over_90_fraction=0.0488405 buffer_full_fraction=0.0488405 max_full_streak=6 edge_capacity=0.444444 max_edge_load=0.179 max_edge_utilization=0.40275 total_traversals=5952 buffer_exploded=1 load_exceeded_capacity=0
Edge (13 -> 10) dst_input_port=5 max_buffer_ratio=1 buffer_over_90_fraction=0.0219654 buffer_full_fraction=0.0219654 max_full_streak=8 edge_capacity=0.444444 max_edge_load=0.179 max_edge_utilization=0.40275 total_traversals=5885 buffer_exploded=1 load_exceeded_capacity=0
Edge (13 -> 11) dst_input_port=5 max_buffer_ratio=1 buffer_over_90_fraction=0.0246525 buffer_full_fraction=0.0246525 max_full_streak=5 edge_capacity=0.444444 max_edge_load=0.182 max_edge_utilization=0.4095 total_traversals=5893 buffer_exploded=1 load_exceeded_capacity=0
Edge (13 -> 12) dst_input_port=5 max_buffer_ratio=1 buffer_over_90_fraction=0.0261244 buffer_full_fraction=0.0261244 max_full_streak=5 edge_capacity=0.444444 max_edge_load=0.18 max_edge_utilization=0.405 total_traversals=5939 buffer_exploded=1 load_exceeded_capacity=0
Edge (13 -> 14) dst_input_port=6 max_buffer_ratio=1 buffer_over_90_fraction=0.0136925 buffer_full_fraction=0.0136925 max_full_streak=3 edge_capacity=0.444444 max_edge_load=0.183 max_edge_utilization=0.41175 total_traversals=5862 buffer_exploded=1 load_exceeded_capacity=0
Edge (13 -> 15) dst_input_port=6 max_buffer_ratio=1 buffer_over_90_fraction=0.0175568 buffer_full_fraction=0.0175568 max_full_streak=4 edge_capacity=0.444444 max_edge_load=0.181 max_edge_utilization=0.40725 total_traversals=5952 buffer_exploded=1 load_exceeded_capacity=0
Edge (13 -> 16) dst_input_port=6 max_buffer_ratio=1 buffer_over_90_fraction=0.029029 buffer_full_fraction=0.029029 max_full_streak=3 edge_capacity=0.444444 max_edge_load=0.18 max_edge_utilization=0.405 total_traversals=5877 buffer_exploded=1 load_exceeded_capacity=0
Edge (13 -> 17) dst_input_port=6 max_buffer_ratio=1 buffer_over_90_fraction=0.0353149 buffer_full_fraction=0.0353149 max_full_streak=3 edge_capacity=0.444444 max_edge_load=0.182 max_edge_utilization=0.4095 total_traversals=5893 buffer_exploded=1 load_exceeded_capacity=0
Edge (13 -> 31) dst_input_port=0 max_buffer_ratio=1 buffer_over_90_fraction=0.000473485 buffer_full_fraction=0.000473485 max_full_streak=1 edge_capacity=1 max_edge_load=0.273 max_edge_utilization=0.273 total_traversals=10019 buffer_exploded=1 load_exceeded_capacity=0
Edge (14 -> 5) dst_input_port=0 max_buffer_ratio=1 buffer_over_90_fraction=0.00036824 buffer_full_fraction=0.00036824 max_full_streak=1 edge_capacity=1 max_edge_load=0.272 max_edge_utilization=0.272 total_traversals=9958 buffer_exploded=1 load_exceeded_capacity=0
Edge (14 -> 9) dst_input_port=6 max_buffer_ratio=1 buffer_over_90_fraction=0.022418 buffer_full_fraction=0.022418 max_full_streak=3 edge_capacity=0.444444 max_edge_load=0.181 max_edge_utilization=0.40725 total_traversals=5939 buffer_exploded=1 load_exceeded_capacity=0
Edge (14 -> 10) dst_input_port=6 max_buffer_ratio=1 buffer_over_90_fraction=0.00883392 buffer_full_fraction=0.00883392 max_full_streak=3 edge_capacity=0.444444 max_edge_load=0.18 max_edge_utilization=0.405 total_traversals=5872 buffer_exploded=1 load_exceeded_capacity=0
Edge (14 -> 11) dst_input_port=6 max_buffer_ratio=1 buffer_over_90_fraction=0.0282278 buffer_full_fraction=0.0282278 max_full_streak=5 edge_capacity=0.444444 max_edge_load=0.182 max_edge_utilization=0.4095 total_traversals=5880 buffer_exploded=1 load_exceeded_capacity=0
Edge (14 -> 12) dst_input_port=6 max_buffer_ratio=1 buffer_over_90_fraction=0.0121465 buffer_full_fraction=0.0121465 max_full_streak=3 edge_capacity=0.444444 max_edge_load=0.18 max_edge_utilization=0.405 total_traversals=5926 buffer_exploded=1 load_exceeded_capacity=0
Edge (14 -> 13) dst_input_port=6 max_buffer_ratio=1 buffer_over_90_fraction=0.0490429 buffer_full_fraction=0.0490429 max_full_streak=4 edge_capacity=0.444444 max_edge_load=0.183 max_edge_utilization=0.41175 total_traversals=5907 buffer_exploded=1 load_exceeded_capacity=0
Edge (14 -> 15) dst_input_port=7 max_buffer_ratio=1 buffer_over_90_fraction=0.0149527 buffer_full_fraction=0.0149527 max_full_streak=3 edge_capacity=0.444444 max_edge_load=0.182 max_edge_utilization=0.4095 total_traversals=5939 buffer_exploded=1 load_exceeded_capacity=0
Edge (14 -> 16) dst_input_port=7 max_buffer_ratio=1 buffer_over_90_fraction=0.0215337 buffer_full_fraction=0.0215337 max_full_streak=3 edge_capacity=0.444444 max_edge_load=0.18 max_edge_utilization=0.405 total_traversals=5864 buffer_exploded=1 load_exceeded_capacity=0
Edge (14 -> 17) dst_input_port=7 max_buffer_ratio=1 buffer_over_90_fraction=0.030649 buffer_full_fraction=0.030649 max_full_streak=3 edge_capacity=0.444444 max_edge_load=0.182 max_edge_utilization=0.4095 total_traversals=5879 buffer_exploded=1 load_exceeded_capacity=0
Edge (14 -> 32) dst_input_port=0 max_buffer_ratio=1 buffer_over_90_fraction=0.000673332 buffer_full_fraction=0.000673332 max_full_streak=1 edge_capacity=1 max_edge_load=0.273 max_edge_utilization=0.273 total_traversals=8830 buffer_exploded=1 load_exceeded_capacity=0
Edge (15 -> 6) dst_input_port=0 max_buffer_ratio=1 buffer_over_90_fraction=0.00191173 buffer_full_fraction=0.00191173 max_full_streak=2 edge_capacity=1 max_edge_load=0.274 max_edge_utilization=0.274 total_traversals=8802 buffer_exploded=1 load_exceeded_capacity=0
Edge (15 -> 9) dst_input_port=7 max_buffer_ratio=1 buffer_over_90_fraction=0.0169584 buffer_full_fraction=0.0169584 max_full_streak=4 edge_capacity=0.444444 max_edge_load=0.18 max_edge_utilization=0.405 total_traversals=6537 buffer_exploded=1 load_exceeded_capacity=0
Edge (15 -> 10) dst_input_port=7 max_buffer_ratio=1 buffer_over_90_fraction=0.0253247 buffer_full_fraction=0.0253247 max_full_streak=3 edge_capacity=0.444444 max_edge_load=0.179 max_edge_utilization=0.40275 total_traversals=5937 buffer_exploded=1 load_exceeded_capacity=0
Edge (15 -> 11) dst_input_port=7 max_buffer_ratio=1 buffer_over_90_fraction=0.0238601 buffer_full_fraction=0.0238601 max_full_streak=5 edge_capacity=0.444444 max_edge_load=0.18 max_edge_utilization=0.405 total_traversals=5945 buffer_exploded=1 load_exceeded_capacity=0
Edge (15 -> 12) dst_input_port=7 max_buffer_ratio=1 buffer_over_90_fraction=0.0197438 buffer_full_fraction=0.0197438 max_full_streak=3 edge_capacity=0.444444 max_edge_load=0.18 max_edge_utilization=0.405 total_traversals=5991 buffer_exploded=1 load_exceeded_capacity=0
Edge (15 -> 13) dst_input_port=7 max_buffer_ratio=1 buffer_over_90_fraction=0.0295162 buffer_full_fraction=0.0295162 max_full_streak=4 edge_capacity=0.444444 max_edge_load=0.181 max_edge_utilization=0.40725 total_traversals=5972 buffer_exploded=1 load_exceeded_capacity=0
Edge (15 -> 14) dst_input_port=7 max_buffer_ratio=1 buffer_over_90_fraction=0.0255703 buffer_full_fraction=0.0255703 max_full_streak=4 edge_capacity=0.444444 max_edge_load=0.181 max_edge_utilization=0.40725 total_traversals=5914 buffer_exploded=1 load_exceeded_capacity=0
Edge (15 -> 16) dst_input_port=8 max_buffer_ratio=1 buffer_over_90_fraction=0.0334934 buffer_full_fraction=0.0334934 max_full_streak=3 edge_capacity=0.444444 max_edge_load=0.179 max_edge_utilization=0.40275 total_traversals=5929 buffer_exploded=1 load_exceeded_capacity=0
Edge (15 -> 17) dst_input_port=8 max_buffer_ratio=1 buffer_over_90_fraction=0.0433566 buffer_full_fraction=0.0433566 max_full_streak=4 edge_capacity=0.444444 max_edge_load=0.18 max_edge_utilization=0.405 total_traversals=5944 buffer_exploded=1 load_exceeded_capacity=0
Edge (15 -> 33) dst_input_port=0 max_buffer_ratio=1 buffer_over_90_fraction=0.00138759 buffer_full_fraction=0.00138759 max_full_streak=1 edge_capacity=1 max_edge_load=0.271 max_edge_utilization=0.271 total_traversals=8829 buffer_exploded=1 load_exceeded_capacity=0
Edge (16 -> 7) dst_input_port=0 max_buffer_ratio=1 buffer_over_90_fraction=0.00103944 buffer_full_fraction=0.00103944 max_full_streak=1 edge_capacity=1 max_edge_load=0.274 max_edge_utilization=0.274 total_traversals=8802 buffer_exploded=1 load_exceeded_capacity=0
Edge (16 -> 9) dst_input_port=8 max_buffer_ratio=1 buffer_over_90_fraction=0.0115887 buffer_full_fraction=0.0115887 max_full_streak=4 edge_capacity=0.444444 max_edge_load=0.18 max_edge_utilization=0.405 total_traversals=5939 buffer_exploded=1 load_exceeded_capacity=0
Edge (16 -> 10) dst_input_port=8 max_buffer_ratio=1 buffer_over_90_fraction=0.0142592 buffer_full_fraction=0.0142592 max_full_streak=3 edge_capacity=0.444444 max_edge_load=0.181 max_edge_utilization=0.40725 total_traversals=5872 buffer_exploded=1 load_exceeded_capacity=0
Edge (16 -> 11) dst_input_port=8 max_buffer_ratio=1 buffer_over_90_fraction=0.0181763 buffer_full_fraction=0.0181763 max_full_streak=3 edge_capacity=0.444444 max_edge_load=0.182 max_edge_utilization=0.4095 total_traversals=5880 buffer_exploded=1 load_exceeded_capacity=0
Edge (16 -> 12) dst_input_port=8 max_buffer_ratio=1 buffer_over_90_fraction=0.0218229 buffer_full_fraction=0.0218229 max_full_streak=3 edge_capacity=0.444444 max_edge_load=0.181 max_edge_utilization=0.40725 total_traversals=5925 buffer_exploded=1 load_exceeded_capacity=0
Edge (16 -> 13) dst_input_port=8 max_buffer_ratio=1 buffer_over_90_fraction=0.00638554 buffer_full_fraction=0.00638554 max_full_streak=3 edge_capacity=0.444444 max_edge_load=0.181 max_edge_utilization=0.40725 total_traversals=5907 buffer_exploded=1 load_exceeded_capacity=0
Edge (16 -> 14) dst_input_port=8 max_buffer_ratio=1 buffer_over_90_fraction=0.0206676 buffer_full_fraction=0.0206676 max_full_streak=4 edge_capacity=0.444444 max_edge_load=0.183 max_edge_utilization=0.41175 total_traversals=5849 buffer_exploded=1 load_exceeded_capacity=0
Edge (16 -> 15) dst_input_port=8 max_buffer_ratio=1 buffer_over_90_fraction=0.0293062 buffer_full_fraction=0.0293062 max_full_streak=3 edge_capacity=0.444444 max_edge_load=0.181 max_edge_utilization=0.40725 total_traversals=5937 buffer_exploded=1 load_exceeded_capacity=0
Edge (16 -> 17) dst_input_port=9 max_buffer_ratio=1 buffer_over_90_fraction=0.0220076 buffer_full_fraction=0.0220076 max_full_streak=3 edge_capacity=0.444444 max_edge_load=0.183 max_edge_utilization=0.41175 total_traversals=5879 buffer_exploded=1 load_exceeded_capacity=0
Edge (16 -> 34) dst_input_port=0 max_buffer_ratio=1 buffer_over_90_fraction=0.00050854 buffer_full_fraction=0.00050854 max_full_streak=1 edge_capacity=1 max_edge_load=0.272 max_edge_utilization=0.272 total_traversals=10000 buffer_exploded=1 load_exceeded_capacity=0
Edge (17 -> 8) dst_input_port=0 max_buffer_ratio=1 buffer_over_90_fraction=0.000385742 buffer_full_fraction=0.000385742 max_full_streak=1 edge_capacity=1 max_edge_load=0.273 max_edge_utilization=0.273 total_traversals=10043 buffer_exploded=1 load_exceeded_capacity=0
Edge (17 -> 9) dst_input_port=9 max_buffer_ratio=1 buffer_over_90_fraction=0.00613193 buffer_full_fraction=0.00613193 max_full_streak=4 edge_capacity=0.444444 max_edge_load=0.18 max_edge_utilization=0.405 total_traversals=5938 buffer_exploded=1 load_exceeded_capacity=0
Edge (17 -> 10) dst_input_port=9 max_buffer_ratio=1 buffer_over_90_fraction=0.017947 buffer_full_fraction=0.017947 max_full_streak=3 edge_capacity=0.444444 max_edge_load=0.18 max_edge_utilization=0.405 total_traversals=5872 buffer_exploded=1 load_exceeded_capacity=0
Edge (17 -> 11) dst_input_port=9 max_buffer_ratio=1 buffer_over_90_fraction=0.017423 buffer_full_fraction=0.017423 max_full_streak=3 edge_capacity=0.444444 max_edge_load=0.181 max_edge_utilization=0.40725 total_traversals=5879 buffer_exploded=1 load_exceeded_capacity=0
Edge (17 -> 12) dst_input_port=9 max_buffer_ratio=1 buffer_over_90_fraction=0.0208274 buffer_full_fraction=0.0208274 max_full_streak=3 edge_capacity=0.444444 max_edge_load=0.18 max_edge_utilization=0.405 total_traversals=5924 buffer_exploded=1 load_exceeded_capacity=0
Edge (17 -> 13) dst_input_port=9 max_buffer_ratio=1 buffer_over_90_fraction=0.0302024 buffer_full_fraction=0.0302024 max_full_streak=5 edge_capacity=0.444444 max_edge_load=0.181 max_edge_utilization=0.40725 total_traversals=5906 buffer_exploded=1 load_exceeded_capacity=0
Edge (17 -> 14) dst_input_port=9 max_buffer_ratio=1 buffer_over_90_fraction=0.0215935 buffer_full_fraction=0.0215935 max_full_streak=5 edge_capacity=0.444444 max_edge_load=0.182 max_edge_utilization=0.4095 total_traversals=5848 buffer_exploded=1 load_exceeded_capacity=0
Edge (17 -> 15) dst_input_port=9 max_buffer_ratio=1 buffer_over_90_fraction=0.0377227 buffer_full_fraction=0.0377227 max_full_streak=4 edge_capacity=0.444444 max_edge_load=0.18 max_edge_utilization=0.405 total_traversals=5937 buffer_exploded=1 load_exceeded_capacity=0
Edge (17 -> 16) dst_input_port=9 max_buffer_ratio=1 buffer_over_90_fraction=0.0372053 buffer_full_fraction=0.0372053 max_full_streak=4 edge_capacity=0.444444 max_edge_load=0.18 max_edge_utilization=0.405 total_traversals=5863 buffer_exploded=1 load_exceeded_capacity=0
Edge (17 -> 35) dst_input_port=0 max_buffer_ratio=1 buffer_over_90_fraction=0.00171502 buffer_full_fraction=0.00171502 max_full_streak=1 edge_capacity=1 max_edge_load=0.271 max_edge_utilization=0.271 total_traversals=8829 buffer_exploded=1 load_exceeded_capacity=0
Edge (18 -> 0) dst_input_port=1 max_buffer_ratio=1 buffer_over_90_fraction=0.000959003 buffer_full_fraction=0.000959003 max_full_streak=1 edge_capacity=1 max_edge_load=0.271 max_edge_utilization=0.271 total_traversals=8907 buffer_exploded=1 load_exceeded_capacity=0
Edge (18 -> 19) dst_input_port=2 max_buffer_ratio=1 buffer_over_90_fraction=0.0349857 buffer_full_fraction=0.0349857 max_full_streak=5 edge_capacity=0.444444 max_edge_load=0.18 max_edge_utilization=0.405 total_traversals=6004 buffer_exploded=1 load_exceeded_capacity=0
Edge (18 -> 20) dst_input_port=2 max_buffer_ratio=1 buffer_over_90_fraction=0.018682 buffer_full_fraction=0.018682 max_full_streak=3 edge_capacity=0.444444 max_edge_load=0.181 max_edge_utilization=0.40725 total_traversals=6020 buffer_exploded=1 load_exceeded_capacity=0
Edge (18 -> 21) dst_input_port=2 max_buffer_ratio=1 buffer_over_90_fraction=0.0125359 buffer_full_fraction=0.0125359 max_full_streak=5 edge_capacity=0.444444 max_edge_load=0.181 max_edge_utilization=0.40725 total_traversals=6163 buffer_exploded=1 load_exceeded_capacity=0
[...]
Edge (28 -> 35) dst_input_port=3 max_buffer_ratio=1 buffer_over_90_fraction=0.04311 buffer_full_fraction=0.04311 max_full_streak=4 edge_capacity=0.444444 max_edge_load=0.18 max_edge_utilization=0.405 total_traversals=5890 buffer_exploded=1 load_exceeded_capacity=0
Edge (29 -> 11) dst_input_port=1 max_buffer_ratio=1 buffer_over_90_fraction=0.000526417 buffer_full_fraction=0.000526417 max_full_streak=1 edge_capacity=1 max_edge_load=0.277 max_edge_utilization=0.277 total_traversals=10293 buffer_exploded=1 load_exceeded_capacity=0
Edge (29 -> 20) dst_input_port=1 max_buffer_ratio=1 buffer_over_90_fraction=0.00181822 buffer_full_fraction=0.00181822 max_full_streak=1 edge_capacity=1 max_edge_load=0.271 max_edge_utilization=0.271 total_traversals=8913 buffer_exploded=1 load_exceeded_capacity=0
Edge (29 -> 27) dst_input_port=3 max_buffer_ratio=1 buffer_over_90_fraction=0.0210946 buffer_full_fraction=0.0210946 max_full_streak=4 edge_capacity=0.444444 max_edge_load=0.182 max_edge_utilization=0.4095 total_traversals=5955 buffer_exploded=1 load_exceeded_capacity=0
Edge (29 -> 28) dst_input_port=3 max_buffer_ratio=1 buffer_over_90_fraction=0.0369864 buffer_full_fraction=0.0369864 max_full_streak=8 edge_capacity=0.444444 max_edge_load=0.181 max_edge_utilization=0.40725 total_traversals=5888 buffer_exploded=1 load_exceeded_capacity=0
Edge (29 -> 30) dst_input_port=4 max_buffer_ratio=1 buffer_over_90_fraction=0.036719 buffer_full_fraction=0.036719 max_full_streak=6 edge_capacity=0.444444 max_edge_load=0.182 max_edge_utilization=0.4095 total_traversals=5916 buffer_exploded=1 load_exceeded_capacity=0
Edge (29 -> 31) dst_input_port=4 max_buffer_ratio=1 buffer_over_90_fraction=0.0302779 buffer_full_fraction=0.0302779 max_full_streak=3 edge_capacity=0.444444 max_edge_load=0.182 max_edge_utilization=0.4095 total_traversals=5893 buffer_exploded=1 load_exceeded_capacity=0
Edge (29 -> 32) dst_input_port=4 max_buffer_ratio=1 buffer_over_90_fraction=0.00993716 buffer_full_fraction=0.00993716 max_full_streak=3 edge_capacity=0.444444 max_edge_load=0.184 max_edge_utilization=0.414 total_traversals=5944 buffer_exploded=1 load_exceeded_capacity=0
Edge (29 -> 33) dst_input_port=4 max_buffer_ratio=1 buffer_over_90_fraction=0.00936796 buffer_full_fraction=0.00936796 max_full_streak=4 edge_capacity=0.444444 max_edge_load=0.181 max_edge_utilization=0.40725 total_traversals=5930 buffer_exploded=1 load_exceeded_capacity=0
Edge (29 -> 34) dst_input_port=4 max_buffer_ratio=1 buffer_over_90_fraction=0.00854893 buffer_full_fraction=0.00854893 max_full_streak=3 edge_capacity=0.444444 max_edge_load=0.182 max_edge_utilization=0.4095 total_traversals=5880 buffer_exploded=1 load_exceeded_capacity=0
Edge (29 -> 35) dst_input_port=4 max_buffer_ratio=1 buffer_over_90_fraction=0.0273509 buffer_full_fraction=0.0273509 max_full_streak=5 edge_capacity=0.444444 max_edge_load=0.181 max_edge_utilization=0.40725 total_traversals=5884 buffer_exploded=1 load_exceeded_capacity=0
Edge (30 -> 12) dst_input_port=1 max_buffer_ratio=1 buffer_over_90_fraction=0.00169521 buffer_full_fraction=0.00169521 max_full_streak=1 edge_capacity=1 max_edge_load=0.275 max_edge_utilization=0.275 total_traversals=8800 buffer_exploded=1 load_exceeded_capacity=0
Edge (30 -> 21) dst_input_port=1 max_buffer_ratio=1 buffer_over_90_fraction=0.00105924 buffer_full_fraction=0.00105924 max_full_streak=1 edge_capacity=1 max_edge_load=0.271 max_edge_utilization=0.271 total_traversals=8913 buffer_exploded=1 load_exceeded_capacity=0
Edge (30 -> 27) dst_input_port=4 max_buffer_ratio=1 buffer_over_90_fraction=0.0464328 buffer_full_fraction=0.0464328 max_full_streak=5 edge_capacity=0.444444 max_edge_load=0.18 max_edge_utilization=0.405 total_traversals=5999 buffer_exploded=1 load_exceeded_capacity=0
Edge (30 -> 28) dst_input_port=4 max_buffer_ratio=1 buffer_over_90_fraction=0.0349762 buffer_full_fraction=0.0349762 max_full_streak=4 edge_capacity=0.444444 max_edge_load=0.18 max_edge_utilization=0.405 total_traversals=5931 buffer_exploded=1 load_exceeded_capacity=0
Edge (30 -> 29) dst_input_port=4 max_buffer_ratio=1 buffer_over_90_fraction=0.0368112 buffer_full_fraction=0.0368112 max_full_streak=5 edge_capacity=0.444444 max_edge_load=0.18 max_edge_utilization=0.405 total_traversals=5949 buffer_exploded=1 load_exceeded_capacity=0
Edge (30 -> 31) dst_input_port=5 max_buffer_ratio=1 buffer_over_90_fraction=0.0226421 buffer_full_fraction=0.0226421 max_full_streak=3 edge_capacity=0.444444 max_edge_load=0.181 max_edge_utilization=0.40725 total_traversals=5937 buffer_exploded=1 load_exceeded_capacity=0
Edge (30 -> 32) dst_input_port=5 max_buffer_ratio=1 buffer_over_90_fraction=0.0133567 buffer_full_fraction=0.0133567 max_full_streak=3 edge_capacity=0.444444 max_edge_load=0.18 max_edge_utilization=0.405 total_traversals=5988 buffer_exploded=1 load_exceeded_capacity=0
Edge (30 -> 33) dst_input_port=5 max_buffer_ratio=1 buffer_over_90_fraction=0.0145004 buffer_full_fraction=0.0145004 max_full_streak=5 edge_capacity=0.444444 max_edge_load=0.181 max_edge_utilization=0.40725 total_traversals=6577 buffer_exploded=1 load_exceeded_capacity=0
Edge (30 -> 34) dst_input_port=5 max_buffer_ratio=1 buffer_over_90_fraction=0.0236837 buffer_full_fraction=0.0236837 max_full_streak=3 edge_capacity=0.444444 max_edge_load=0.18 max_edge_utilization=0.405 total_traversals=5924 buffer_exploded=1 load_exceeded_capacity=0
Edge (30 -> 35) dst_input_port=5 max_buffer_ratio=1 buffer_over_90_fraction=0.0195996 buffer_full_fraction=0.0195996 max_full_streak=4 edge_capacity=0.444444 max_edge_load=0.181 max_edge_utilization=0.40725 total_traversals=5928 buffer_exploded=1 load_exceeded_capacity=0
Edge (31 -> 13) dst_input_port=1 max_buffer_ratio=1 buffer_over_90_fraction=0.00145932 buffer_full_fraction=0.00145932 max_full_streak=2 edge_capacity=1 max_edge_load=0.275 max_edge_utilization=0.275 total_traversals=8798 buffer_exploded=1 load_exceeded_capacity=0
Edge (31 -> 22) dst_input_port=1 max_buffer_ratio=1 buffer_over_90_fraction=0.000175617 buffer_full_fraction=0.000175617 max_full_streak=2 edge_capacity=1 max_edge_load=0.27 max_edge_utilization=0.27 total_traversals=10012 buffer_exploded=1 load_exceeded_capacity=0
Edge (31 -> 27) dst_input_port=5 max_buffer_ratio=1 buffer_over_90_fraction=0.0220729 buffer_full_fraction=0.0220729 max_full_streak=3 edge_capacity=0.444444 max_edge_load=0.182 max_edge_utilization=0.4095 total_traversals=5965 buffer_exploded=1 load_exceeded_capacity=0
Edge (31 -> 28) dst_input_port=5 max_buffer_ratio=1 buffer_over_90_fraction=0.0276873 buffer_full_fraction=0.0276873 max_full_streak=4 edge_capacity=0.444444 max_edge_load=0.183 max_edge_utilization=0.41175 total_traversals=5898 buffer_exploded=1 load_exceeded_capacity=0
Edge (31 -> 29) dst_input_port=5 max_buffer_ratio=1 buffer_over_90_fraction=0.0402573 buffer_full_fraction=0.0402573 max_full_streak=4 edge_capacity=0.444444 max_edge_load=0.182 max_edge_utilization=0.4095 total_traversals=5915 buffer_exploded=1 load_exceeded_capacity=0
Edge (31 -> 30) dst_input_port=5 max_buffer_ratio=1 buffer_over_90_fraction=0.0210232 buffer_full_fraction=0.0210232 max_full_streak=4 edge_capacity=0.444444 max_edge_load=0.182 max_edge_utilization=0.4095 total_traversals=5926 buffer_exploded=1 load_exceeded_capacity=0
Edge (31 -> 32) dst_input_port=6 max_buffer_ratio=1 buffer_over_90_fraction=0.0244312 buffer_full_fraction=0.0244312 max_full_streak=3 edge_capacity=0.444444 max_edge_load=0.183 max_edge_utilization=0.41175 total_traversals=5955 buffer_exploded=1 load_exceeded_capacity=0
Edge (31 -> 33) dst_input_port=6 max_buffer_ratio=1 buffer_over_90_fraction=0.0206107 buffer_full_fraction=0.0206107 max_full_streak=3 edge_capacity=0.444444 max_edge_load=0.181 max_edge_utilization=0.40725 total_traversals=5941 buffer_exploded=1 load_exceeded_capacity=0
Edge (31 -> 34) dst_input_port=6 max_buffer_ratio=1 buffer_over_90_fraction=0.00722 buffer_full_fraction=0.00722 max_full_streak=3 edge_capacity=0.444444 max_edge_load=0.181 max_edge_utilization=0.40725 total_traversals=5891 buffer_exploded=1 load_exceeded_capacity=0
Edge (31 -> 35) dst_input_port=6 max_buffer_ratio=1 buffer_over_90_fraction=0.0100802 buffer_full_fraction=0.0100802 max_full_streak=3 edge_capacity=0.444444 max_edge_load=0.18 max_edge_utilization=0.405 total_traversals=5894 buffer_exploded=1 load_exceeded_capacity=0
Edge (32 -> 14) dst_input_port=1 max_buffer_ratio=1 buffer_over_90_fraction=0.000298314 buffer_full_fraction=0.000298314 max_full_streak=1 edge_capacity=1 max_edge_load=0.277 max_edge_utilization=0.277 total_traversals=10271 buffer_exploded=1 load_exceeded_capacity=0
Edge (32 -> 23) dst_input_port=1 max_buffer_ratio=1 buffer_over_90_fraction=0.000699804 buffer_full_fraction=0.000699804 max_full_streak=2 edge_capacity=1 max_edge_load=0.27 max_edge_utilization=0.27 total_traversals=8912 buffer_exploded=1 load_exceeded_capacity=0
Edge (32 -> 27) dst_input_port=6 max_buffer_ratio=1 buffer_over_90_fraction=0.0210564 buffer_full_fraction=0.0210564 max_full_streak=4 edge_capacity=0.444444 max_edge_load=0.184 max_edge_utilization=0.414 total_traversals=5924 buffer_exploded=1 load_exceeded_capacity=0
Edge (32 -> 28) dst_input_port=6 max_buffer_ratio=1 buffer_over_90_fraction=0.00476648 buffer_full_fraction=0.00476648 max_full_streak=4 edge_capacity=0.444444 max_edge_load=0.18 max_edge_utilization=0.405 total_traversals=5855 buffer_exploded=1 load_exceeded_capacity=0
Edge (32 -> 29) dst_input_port=6 max_buffer_ratio=1 buffer_over_90_fraction=0.0245787 buffer_full_fraction=0.0245787 max_full_streak=4 edge_capacity=0.444444 max_edge_load=0.185 max_edge_utilization=0.41625 total_traversals=5873 buffer_exploded=1 load_exceeded_capacity=0
Edge (32 -> 30) dst_input_port=6 max_buffer_ratio=1 buffer_over_90_fraction=0.0176867 buffer_full_fraction=0.0176867 max_full_streak=4 edge_capacity=0.444444 max_edge_load=0.183 max_edge_utilization=0.41175 total_traversals=5884 buffer_exploded=1 load_exceeded_capacity=0
Edge (32 -> 31) dst_input_port=6 max_buffer_ratio=1 buffer_over_90_fraction=0.0262822 buffer_full_fraction=0.0262822 max_full_streak=4 edge_capacity=0.444444 max_edge_load=0.183 max_edge_utilization=0.41175 total_traversals=5862 buffer_exploded=1 load_exceeded_capacity=0
Edge (32 -> 33) dst_input_port=7 max_buffer_ratio=1 buffer_over_90_fraction=0.026257 buffer_full_fraction=0.026257 max_full_streak=3 edge_capacity=0.444444 max_edge_load=0.18 max_edge_utilization=0.405 total_traversals=5899 buffer_exploded=1 load_exceeded_capacity=0
Edge (32 -> 34) dst_input_port=7 max_buffer_ratio=1 buffer_over_90_fraction=0.0279762 buffer_full_fraction=0.0279762 max_full_streak=4 edge_capacity=0.444444 max_edge_load=0.183 max_edge_utilization=0.41175 total_traversals=5849 buffer_exploded=1 load_exceeded_capacity=0
Edge (32 -> 35) dst_input_port=7 max_buffer_ratio=1 buffer_over_90_fraction=0.0254805 buffer_full_fraction=0.0254805 max_full_streak=4 edge_capacity=0.444444 max_edge_load=0.182 max_edge_utilization=0.4095 total_traversals=5853 buffer_exploded=1 load_exceeded_capacity=0
Edge (33 -> 15) dst_input_port=1 max_buffer_ratio=1 buffer_over_90_fraction=0.000729723 buffer_full_fraction=0.000729723 max_full_streak=2 edge_capacity=1 max_edge_load=0.276 max_edge_utilization=0.276 total_traversals=8798 buffer_exploded=1 load_exceeded_capacity=0
Edge (33 -> 24) dst_input_port=1 max_buffer_ratio=1 buffer_over_90_fraction=0.000959885 buffer_full_fraction=0.000959885 max_full_streak=1 edge_capacity=1 max_edge_load=0.27 max_edge_utilization=0.27 total_traversals=8912 buffer_exploded=1 load_exceeded_capacity=0
Edge (33 -> 27) dst_input_port=7 max_buffer_ratio=1 buffer_over_90_fraction=0.0213143 buffer_full_fraction=0.0213143 max_full_streak=3 edge_capacity=0.444444 max_edge_load=0.183 max_edge_utilization=0.41175 total_traversals=6575 buffer_exploded=1 load_exceeded_capacity=0
Edge (33 -> 28) dst_input_port=7 max_buffer_ratio=1 buffer_over_90_fraction=0.0228795 buffer_full_fraction=0.0228795 max_full_streak=3 edge_capacity=0.444444 max_edge_load=0.181 max_edge_utilization=0.40725 total_traversals=5954 buffer_exploded=1 load_exceeded_capacity=0
Edge (33 -> 29) dst_input_port=7 max_buffer_ratio=1 buffer_over_90_fraction=0.0340517 buffer_full_fraction=0.0340517 max_full_streak=4 edge_capacity=0.444444 max_edge_load=0.183 max_edge_utilization=0.41175 total_traversals=5972 buffer_exploded=1 load_exceeded_capacity=0
Edge (33 -> 30) dst_input_port=7 max_buffer_ratio=1 buffer_over_90_fraction=0.0221699 buffer_full_fraction=0.0221699 max_full_streak=3 edge_capacity=0.444444 max_edge_load=0.181 max_edge_utilization=0.40725 total_traversals=5983 buffer_exploded=1 load_exceeded_capacity=0
Edge (33 -> 31) dst_input_port=7 max_buffer_ratio=1 buffer_over_90_fraction=0.0390781 buffer_full_fraction=0.0390781 max_full_streak=6 edge_capacity=0.444444 max_edge_load=0.181 max_edge_utilization=0.40725 total_traversals=5961 buffer_exploded=1 load_exceeded_capacity=0
Edge (33 -> 32) dst_input_port=7 max_buffer_ratio=1 buffer_over_90_fraction=0.0433855 buffer_full_fraction=0.0433855 max_full_streak=5 edge_capacity=0.444444 max_edge_load=0.184 max_edge_utilization=0.414 total_traversals=6012 buffer_exploded=1 load_exceeded_capacity=0
Edge (33 -> 34) dst_input_port=8 max_buffer_ratio=1 buffer_over_90_fraction=0.0319679 buffer_full_fraction=0.0319679 max_full_streak=3 edge_capacity=0.444444 max_edge_load=0.182 max_edge_utilization=0.4095 total_traversals=5946 buffer_exploded=1 load_exceeded_capacity=0
Edge (33 -> 35) dst_input_port=8 max_buffer_ratio=1 buffer_over_90_fraction=0.0253874 buffer_full_fraction=0.0253874 max_full_streak=3 edge_capacity=0.444444 max_edge_load=0.181 max_edge_utilization=0.40725 total_traversals=5951 buffer_exploded=1 load_exceeded_capacity=0
Edge (34 -> 16) dst_input_port=1 max_buffer_ratio=1 buffer_over_90_fraction=0.000879998 buffer_full_fraction=0.000879998 max_full_streak=1 edge_capacity=1 max_edge_load=0.277 max_edge_utilization=0.277 total_traversals=8798 buffer_exploded=1 load_exceeded_capacity=0
Edge (34 -> 25) dst_input_port=1 max_buffer_ratio=1 buffer_over_90_fraction=0.000596125 buffer_full_fraction=0.000596125 max_full_streak=1 edge_capacity=1 max_edge_load=0.271 max_edge_utilization=0.271 total_traversals=9681 buffer_exploded=1 load_exceeded_capacity=0
Edge (34 -> 27) dst_input_port=8 max_buffer_ratio=1 buffer_over_90_fraction=0.0290387 buffer_full_fraction=0.0290387 max_full_streak=3 edge_capacity=0.444444 max_edge_load=0.182 max_edge_utilization=0.4095 total_traversals=6019 buffer_exploded=1 load_exceeded_capacity=0
Edge (34 -> 28) dst_input_port=8 max_buffer_ratio=1 buffer_over_90_fraction=0.0292906 buffer_full_fraction=0.0292906 max_full_streak=3 edge_capacity=0.444444 max_edge_load=0.181 max_edge_utilization=0.40725 total_traversals=5952 buffer_exploded=1 load_exceeded_capacity=0
Edge (34 -> 29) dst_input_port=8 max_buffer_ratio=1 buffer_over_90_fraction=0.0165041 buffer_full_fraction=0.0165041 max_full_streak=3 edge_capacity=0.444444 max_edge_load=0.181 max_edge_utilization=0.40725 total_traversals=5970 buffer_exploded=1 load_exceeded_capacity=0
Edge (34 -> 30) dst_input_port=8 max_buffer_ratio=1 buffer_over_90_fraction=0.012455 buffer_full_fraction=0.012455 max_full_streak=3 edge_capacity=0.444444 max_edge_load=0.181 max_edge_utilization=0.40725 total_traversals=5981 buffer_exploded=1 load_exceeded_capacity=0
Edge (34 -> 31) dst_input_port=8 max_buffer_ratio=1 buffer_over_90_fraction=0.0118365 buffer_full_fraction=0.0118365 max_full_streak=4 edge_capacity=0.444444 max_edge_load=0.181 max_edge_utilization=0.40725 total_traversals=5959 buffer_exploded=1 load_exceeded_capacity=0
Edge (34 -> 32) dst_input_port=8 max_buffer_ratio=1 buffer_over_90_fraction=0.0456974 buffer_full_fraction=0.0456974 max_full_streak=8 edge_capacity=0.444444 max_edge_load=0.181 max_edge_utilization=0.40725 total_traversals=6010 buffer_exploded=1 load_exceeded_capacity=0
Edge (34 -> 33) dst_input_port=8 max_buffer_ratio=1 buffer_over_90_fraction=0.00785533 buffer_full_fraction=0.00785533 max_full_streak=3 edge_capacity=0.444444 max_edge_load=0.18 max_edge_utilization=0.405 total_traversals=5996 buffer_exploded=1 load_exceeded_capacity=0
Edge (34 -> 35) dst_input_port=9 max_buffer_ratio=1 buffer_over_90_fraction=0.0340807 buffer_full_fraction=0.0340807 max_full_streak=3 edge_capacity=0.444444 max_edge_load=0.181 max_edge_utilization=0.40725 total_traversals=5950 buffer_exploded=1 load_exceeded_capacity=0
Edge (35 -> 17) dst_input_port=1 max_buffer_ratio=1 buffer_over_90_fraction=0.000613583 buffer_full_fraction=0.000613583 max_full_streak=1 edge_capacity=1 max_edge_load=0.277 max_edge_utilization=0.277 total_traversals=9983 buffer_exploded=1 load_exceeded_capacity=0
Edge (35 -> 26) dst_input_port=1 max_buffer_ratio=1 buffer_over_90_fraction=0.00080008 buffer_full_fraction=0.00080008 max_full_streak=1 edge_capacity=1 max_edge_load=0.27 max_edge_utilization=0.27 total_traversals=8911 buffer_exploded=1 load_exceeded_capacity=0
Edge (35 -> 27) dst_input_port=9 max_buffer_ratio=1 buffer_over_90_fraction=0.0283612 buffer_full_fraction=0.0283612 max_full_streak=3 edge_capacity=0.444444 max_edge_load=0.183 max_edge_utilization=0.41175 total_traversals=5954 buffer_exploded=1 load_exceeded_capacity=0
Edge (35 -> 28) dst_input_port=9 max_buffer_ratio=1 buffer_over_90_fraction=0.0368438 buffer_full_fraction=0.0368438 max_full_streak=3 edge_capacity=0.444444 max_edge_load=0.181 max_edge_utilization=0.40725 total_traversals=5887 buffer_exploded=1 load_exceeded_capacity=0
Edge (35 -> 29) dst_input_port=9 max_buffer_ratio=1 buffer_over_90_fraction=0.0216514 buffer_full_fraction=0.0216514 max_full_streak=3 edge_capacity=0.444444 max_edge_load=0.184 max_edge_utilization=0.414 total_traversals=5905 buffer_exploded=1 load_exceeded_capacity=0
Edge (35 -> 30) dst_input_port=9 max_buffer_ratio=1 buffer_over_90_fraction=0.0140063 buffer_full_fraction=0.0140063 max_full_streak=3 edge_capacity=0.444444 max_edge_load=0.182 max_edge_utilization=0.4095 total_traversals=5916 buffer_exploded=1 load_exceeded_capacity=0
Edge (35 -> 31) dst_input_port=9 max_buffer_ratio=1 buffer_over_90_fraction=0.0207708 buffer_full_fraction=0.0207708 max_full_streak=5 edge_capacity=0.444444 max_edge_load=0.182 max_edge_utilization=0.4095 total_traversals=5893 buffer_exploded=1 load_exceeded_capacity=0
Edge (35 -> 32) dst_input_port=9 max_buffer_ratio=1 buffer_over_90_fraction=0.0252094 buffer_full_fraction=0.0252094 max_full_streak=6 edge_capacity=0.444444 max_edge_load=0.183 max_edge_utilization=0.41175 total_traversals=5944 buffer_exploded=1 load_exceeded_capacity=0
Edge (35 -> 33) dst_input_port=9 max_buffer_ratio=1 buffer_over_90_fraction=0.0122034 buffer_full_fraction=0.0122034 max_full_streak=3 edge_capacity=0.444444 max_edge_load=0.181 max_edge_utilization=0.40725 total_traversals=5930 buffer_exploded=1 load_exceeded_capacity=0
Edge (35 -> 34) dst_input_port=9 max_buffer_ratio=1 buffer_over_90_fraction=0.0258499 buffer_full_fraction=0.0258499 max_full_streak=4 edge_capacity=0.444444 max_edge_load=0.182 max_edge_utilization=0.4095 total_traversals=5879 buffer_exploded=1 load_exceeded_capacity=0
Observed edge count = 360
Observed edge max buffer ratio = 1
Observed edge max load = 0.278
Observed edge max utilization = 0.4185
Observed edge avg over-0.9 buffer fraction = 0.0203954
Observed edge avg full-buffer fraction = 0.0203954
Observed edge max over-0.9 buffer fraction = 0.0636156
Observed edge max full-buffer fraction = 0.0636156
Observed edge worst full-buffer streak = 8
Observed edge exploded buffer count = 360
Observed edge exceeded capacity count = 0

