BEGIN Configuration File: D:\noc_huawei\noc\booksim2-noc_speedup_study\booksim2-noc_speedup_study\tests\data\results\dfm_n9_growth_scheduled_20260409\tmp_configs\dfm_dr_s2201.config
num_vcs     = 24;
vc_buf_size = 16;
wait_for_tail_credit = 1;

vc_allocator = islip;
sw_allocator = islip;
alloc_iters  = 4;

credit_delay   = 2;
routing_delay  = 0;
vc_alloc_delay = 1;
sw_alloc_delay = 1;
st_final_delay = 1;

input_speedup     = 1;
output_speedup    = 1;
internal_speedup  = 1.0;

sim_type = latency;
latency_thres  = 100000.0;
sim_count      = 1;
queue_sample_period_cycles = 0;

topology = die_mesh_full;
dfm_tiles_per_die = 9;
dfm_intra_bandwidth_num = 4;

dfm_hybrid_soft_threshold = 0.25;
dfm_hybrid_hard_threshold = 0.50;
dfm_hybrid_release_threshold = 0.18;
dfm_hybrid_congestion_alpha = 0.25;
dfm_hybrid_increase_step = 0.50;
dfm_hybrid_decrease_step = 0.06;
dfm_hybrid_capacity_guard_ratio = 0.98;
dfm_hybrid_rate_weight = 0.50;
dfm_hybrid_util_target = 0.98;
dfm_hybrid_util_gain = 0.60;
dfm_hybrid_epoch_cycles = 200;
dfm_hybrid_feedback_delay_per_hop = 1;

hybrid_edge_capacity = 1.0;
hybrid_stats_window_cycles = 1000;

packet_size = 1;
traffic = custom_perm;
custom_perm_array = {3,10,20,6,13,23,0,16,26,12,28,2,15,31,5,9,34,8,21,1,29,24,4,32,18,7,35,30,19,11,33,22,14,27,25,17};

injection_rate = 0.05;
dfm_hybrid_stats_window_cycles = 3000;
max_samples = 26;
scheduled_phase_cycles = {3000,3000,3000,3000,3000,3000,3000,3000,3000,3000,3000,3000,3000,3000,3000,3000,3000,3000};
sample_period = 3000;
routing_function = dfm_dr;
warmup_periods = 2;
injection_process = scheduled;
scheduled_injection_rates = {0.05,0.1,0.15,0.2,0.25,0.3,0.35,0.4,0.45,0.5,0.55,0.6,0.65,0.7,0.75,0.8,0.8,0.8};
scheduled_default_phase_cycles = 3000;
perm_seed = 2201;
seed = 2201;

END Configuration File: D:\noc_huawei\noc\booksim2-noc_speedup_study\booksim2-noc_speedup_study\tests\data\results\dfm_n9_growth_scheduled_20260409\tmp_configs\dfm_dr_s2201.config
Class 0:
Packet latency average = 10.0523
	minimum = 10
	maximum = 13
	95th percentile = 10.5
	99th percentile = 12.5
Network latency average = 10.0523
	minimum = 10
	maximum = 13
	95th percentile = 10.5
	99th percentile = 12.5
Slowest packet = 1129
Flit latency average = 10.0523
	minimum = 10
	maximum = 13
	95th percentile = 10.5
	99th percentile = 12.5
Slowest flit = 1129
Fragmentation average = 0
	minimum = 0
	maximum = 0
Injected packet rate average = 0.0499074
	minimum = 0.0433333 (at node 20)
	maximum = 0.0556667 (at node 30)
Accepted packet rate average = 0.0497037
	minimum = 0.0433333 (at node 29)
	maximum = 0.0553333 (at node 33)
Injected flit rate average = 0.0499074
	minimum = 0.0433333 (at node 20)
	maximum = 0.0556667 (at node 30)
Accepted flit rate average= 0.0497037
	minimum = 0.0433333 (at node 29)
	maximum = 0.0553333 (at node 33)
Injected packet length average = 1
Accepted packet length average = 1
Total in-flight flits = 22 (0 measured)
====== Peak Queue Occupancy Statistics (Absolute Max) ======
  Overall Max VC Occupancy = 1
  Overall Max Buffer Occupancy = 2
latency change    = 1
throughput change = 1
Class 0:
Packet latency average = 10.0866
	minimum = 10
	maximum = 15
	95th percentile = 11.5
	99th percentile = 12.5
Network latency average = 10.0866
	minimum = 10
	maximum = 15
	95th percentile = 11.5
	99th percentile = 12.5
Slowest packet = 9767
Flit latency average = 10.0866
	minimum = 10
	maximum = 15
	95th percentile = 11.5
	99th percentile = 12.5
Slowest flit = 9767
Fragmentation average = 0
	minimum = 0
	maximum = 0
Injected packet rate average = 0.0753009
	minimum = 0.0703333 (at node 20)
	maximum = 0.0818333 (at node 1)
Accepted packet rate average = 0.0751065
	minimum = 0.0701667 (at node 29)
	maximum = 0.0816667 (at node 10)
Injected flit rate average = 0.0753009
	minimum = 0.0703333 (at node 20)
	maximum = 0.0818333 (at node 1)
Accepted flit rate average= 0.0751065
	minimum = 0.0701667 (at node 29)
	maximum = 0.0816667 (at node 10)
Injected packet length average = 1
Accepted packet length average = 1
Total in-flight flits = 42 (0 measured)
====== Peak Queue Occupancy Statistics (Absolute Max) ======
  Overall Max VC Occupancy = 1
  Overall Max Buffer Occupancy = 2
latency change    = 0.0033964
throughput change = 0.338224
Warmed up ...Time used is 6000 cycles
Class 0:
Packet latency average = 10.17
	minimum = 10
	maximum = 17
	95th percentile = 12.5
	99th percentile = 13.5
Network latency average = 10.17
	minimum = 10
	maximum = 17
	95th percentile = 12.5
	99th percentile = 13.5
Slowest packet = 19407
Flit latency average = 10.1697
	minimum = 10
	maximum = 17
	95th percentile = 12.5
	99th percentile = 13.5
Slowest flit = 19407
Fragmentation average = 0
	minimum = 0
	maximum = 0
Injected packet rate average = 0.148981
	minimum = 0.134 (at node 4)
	maximum = 0.162333 (at node 0)
Accepted packet rate average = 0.148833
	minimum = 0.134 (at node 13)
	maximum = 0.162333 (at node 3)
Injected flit rate average = 0.148981
	minimum = 0.134 (at node 4)
	maximum = 0.162333 (at node 0)
Accepted flit rate average= 0.148833
	minimum = 0.134 (at node 13)
	maximum = 0.162333 (at node 3)
Injected packet length average = 1
Accepted packet length average = 1
Total in-flight flits = 58 (58 measured)
====== Peak Queue Occupancy Statistics (Absolute Max) ======
  Overall Max VC Occupancy = 1
  Overall Max Buffer Occupancy = 2
latency change    = 0.00819738
throughput change = 0.495365
Class 0:
Packet latency average = 10.2196
	minimum = 10
	maximum = 18
	95th percentile = 12.5
	99th percentile = 13.5
Network latency average = 10.2196
	minimum = 10
	maximum = 18
	95th percentile = 12.5
	99th percentile = 13.5
Slowest packet = 34141
Flit latency average = 10.2194
	minimum = 10
	maximum = 18
	95th percentile = 12.5
	99th percentile = 13.5
Slowest flit = 34141
Fragmentation average = 0
	minimum = 0
	maximum = 0
Injected packet rate average = 0.173921
	minimum = 0.163167 (at node 25)
	maximum = 0.186333 (at node 27)
Accepted packet rate average = 0.17375
	minimum = 0.163333 (at node 7)
	maximum = 0.186167 (at node 30)
Injected flit rate average = 0.173921
	minimum = 0.163167 (at node 25)
	maximum = 0.186333 (at node 27)
Accepted flit rate average= 0.17375
	minimum = 0.163333 (at node 7)
	maximum = 0.186167 (at node 30)
Injected packet length average = 1
Accepted packet length average = 1
Total in-flight flits = 79 (79 measured)
====== Peak Queue Occupancy Statistics (Absolute Max) ======
  Overall Max VC Occupancy = 1
  Overall Max Buffer Occupancy = 2
latency change    = 0.00485775
throughput change = 0.143405
Class 0:
Packet latency average = 10.2736
	minimum = 10
	maximum = 20
	95th percentile = 12.5
	99th percentile = 14.5
Network latency average = 10.2736
	minimum = 10
	maximum = 20
	95th percentile = 12.5
	99th percentile = 14.5
Slowest packet = 78265
Flit latency average = 10.2734
	minimum = 10
	maximum = 20
	95th percentile = 12.5
	99th percentile = 14.5
Slowest flit = 78265
Fragmentation average = 0
	minimum = 0
	maximum = 0
Injected packet rate average = 0.199321
	minimum = 0.192889 (at node 33)
	maximum = 0.207556 (at node 27)
Accepted packet rate average = 0.199185
	minimum = 0.192667 (at node 27)
	maximum = 0.207444 (at node 30)
Injected flit rate average = 0.199321
	minimum = 0.192889 (at node 33)
	maximum = 0.207556 (at node 27)
Accepted flit rate average= 0.199185
	minimum = 0.192667 (at node 27)
	maximum = 0.207444 (at node 30)
Injected packet length average = 1
Accepted packet length average = 1
Total in-flight flits = 86 (86 measured)
====== Peak Queue Occupancy Statistics (Absolute Max) ======
  Overall Max VC Occupancy = 1
  Overall Max Buffer Occupancy = 2
latency change    = 0.0052537
throughput change = 0.127696
Class 0:
Packet latency average = 10.3626
	minimum = 10
	maximum = 22
	95th percentile = 12.5
	99th percentile = 15.5
Network latency average = 10.3626
	minimum = 10
	maximum = 22
	95th percentile = 12.5
	99th percentile = 15.5
Slowest packet = 86498
Flit latency average = 10.3625
	minimum = 10
	maximum = 22
	95th percentile = 12.5
	99th percentile = 15.5
Slowest flit = 86498
Fragmentation average = 0
	minimum = 0
	maximum = 0
Injected packet rate average = 0.224984
	minimum = 0.2185 (at node 33)
	maximum = 0.231417 (at node 8)
Accepted packet rate average = 0.224796
	minimum = 0.21825 (at node 27)
	maximum = 0.231 (at node 26)
Injected flit rate average = 0.224984
	minimum = 0.2185 (at node 33)
	maximum = 0.231417 (at node 8)
Accepted flit rate average= 0.224796
	minimum = 0.21825 (at node 27)
	maximum = 0.231 (at node 26)
Injected packet length average = 1
Accepted packet length average = 1
Total in-flight flits = 123 (123 measured)
====== Peak Queue Occupancy Statistics (Absolute Max) ======
  Overall Max VC Occupancy = 1
  Overall Max Buffer Occupancy = 2
latency change    = 0.0085918
throughput change = 0.11393
Class 0:
Packet latency average = 10.5107
	minimum = 10
	maximum = 35
	95th percentile = 13.5
	99th percentile = 17.5
Network latency average = 10.5107
	minimum = 10
	maximum = 35
	95th percentile = 13.5
	99th percentile = 17.5
Slowest packet = 122351
Flit latency average = 10.5106
	minimum = 10
	maximum = 35
	95th percentile = 13.5
	99th percentile = 17.5
Slowest flit = 122351
Fragmentation average = 0
	minimum = 0
	maximum = 0
Injected packet rate average = 0.250478
	minimum = 0.243533 (at node 15)
	maximum = 0.255867 (at node 8)
Accepted packet rate average = 0.250293
	minimum = 0.243267 (at node 9)
	maximum = 0.255533 (at node 26)
Injected flit rate average = 0.250478
	minimum = 0.243533 (at node 15)
	maximum = 0.255867 (at node 8)
Accepted flit rate average= 0.250293
	minimum = 0.243267 (at node 9)
	maximum = 0.255533 (at node 26)
Injected packet length average = 1
Accepted packet length average = 1
Total in-flight flits = 142 (142 measured)
====== Peak Queue Occupancy Statistics (Absolute Max) ======
  Overall Max VC Occupancy = 1
  Overall Max Buffer Occupancy = 2
latency change    = 0.0140924
throughput change = 0.101866
Class 0:
Packet latency average = 10.8588
	minimum = 10
	maximum = 63
	95th percentile = 15.5
	99th percentile = 23.5
Network latency average = 10.8588
	minimum = 10
	maximum = 63
	95th percentile = 15.5
	99th percentile = 23.5
Slowest packet = 188714
Flit latency average = 10.8586
	minimum = 10
	maximum = 63
	95th percentile = 15.5
	99th percentile = 23.5
Slowest flit = 188714
Fragmentation average = 0
	minimum = 0
	maximum = 0
Injected packet rate average = 0.275457
	minimum = 0.266333 (at node 33)
	maximum = 0.281111 (at node 17)
Accepted packet rate average = 0.27527
	minimum = 0.266111 (at node 27)
	maximum = 0.280944 (at node 8)
Injected flit rate average = 0.275457
	minimum = 0.266333 (at node 33)
	maximum = 0.281111 (at node 17)
Accepted flit rate average= 0.27527
	minimum = 0.266111 (at node 27)
	maximum = 0.280944 (at node 8)
Injected packet length average = 1
Accepted packet length average = 1
Total in-flight flits = 163 (163 measured)
====== Peak Queue Occupancy Statistics (Absolute Max) ======
  Overall Max VC Occupancy = 1
  Overall Max Buffer Occupancy = 3
latency change    = 0.032055
throughput change = 0.0907381
Class 0:
Packet latency average = 13.6247
	minimum = 10
	maximum = 243
	95th percentile = 29.5
	99th percentile = 90.5
Network latency average = 13.4351
	minimum = 10
	maximum = 155
	95th percentile = 29.5
	99th percentile = 90.5
Slowest packet = 222047
Flit latency average = 13.4345
	minimum = 10
	maximum = 155
	95th percentile = 29.5
	99th percentile = 90.5
Slowest flit = 222047
Fragmentation average = 0
	minimum = 0
	maximum = 0
Injected packet rate average = 0.300208
	minimum = 0.29119 (at node 33)
	maximum = 0.305952 (at node 17)
Accepted packet rate average = 0.299553
	minimum = 0.289952 (at node 27)
	maximum = 0.305857 (at node 8)
Injected flit rate average = 0.300208
	minimum = 0.29119 (at node 33)
	maximum = 0.305952 (at node 17)
Accepted flit rate average= 0.299553
	minimum = 0.289952 (at node 27)
	maximum = 0.305857 (at node 8)
Injected packet length average = 1
Accepted packet length average = 1
Total in-flight flits = 539 (539 measured)
====== Peak Queue Occupancy Statistics (Absolute Max) ======
  Overall Max VC Occupancy = 1
  Overall Max Buffer Occupancy = 23
latency change    = 0.203003
throughput change = 0.0810636
Class 0:
Packet latency average = 26.8074
	minimum = 10
	maximum = 573
	95th percentile = 136.5
	99th percentile = 360.5
Network latency average = 18.0558
	minimum = 10
	maximum = 155
	95th percentile = 101.5
	99th percentile = 101.5
Slowest packet = 222047
Flit latency average = 18.0546
	minimum = 10
	maximum = 155
	95th percentile = 101.5
	99th percentile = 101.5
Slowest flit = 222047
Fragmentation average = 0
	minimum = 0
	maximum = 0
Injected packet rate average = 0.322928
	minimum = 0.311125 (at node 33)
	maximum = 0.330125 (at node 17)
Accepted packet rate average = 0.322197
	minimum = 0.30925 (at node 27)
	maximum = 0.33 (at node 8)
Injected flit rate average = 0.322928
	minimum = 0.311125 (at node 33)
	maximum = 0.330125 (at node 17)
Accepted flit rate average= 0.322197
	minimum = 0.30925 (at node 27)
	maximum = 0.33 (at node 8)
Injected packet length average = 1
Accepted packet length average = 1
Total in-flight flits = 682 (682 measured)
====== Peak Queue Occupancy Statistics (Absolute Max) ======
  Overall Max VC Occupancy = 1
  Overall Max Buffer Occupancy = 23
latency change    = 0.491757
throughput change = 0.0702796
Class 0:
Packet latency average = 56.4803
	minimum = 10
	maximum = 1175
	95th percentile = 407.5
	99th percentile = 847.5
Network latency average = 21.1887
	minimum = 10
	maximum = 155
	95th percentile = 101.5
	99th percentile = 101.5
Slowest packet = 222047
Flit latency average = 21.1873
	minimum = 10
	maximum = 155
	95th percentile = 101.5
	99th percentile = 101.5
Slowest flit = 222047
Fragmentation average = 0
	minimum = 0
	maximum = 0
Injected packet rate average = 0.344077
	minimum = 0.325963 (at node 33)
	maximum = 0.355037 (at node 23)
Accepted packet rate average = 0.343437
	minimum = 0.324296 (at node 27)
	maximum = 0.354815 (at node 32)
Injected flit rate average = 0.344077
	minimum = 0.325963 (at node 33)
	maximum = 0.355037 (at node 23)
Accepted flit rate average= 0.343437
	minimum = 0.324296 (at node 27)
	maximum = 0.354815 (at node 32)
Injected packet length average = 1
Accepted packet length average = 1
Total in-flight flits = 668 (668 measured)
====== Peak Queue Occupancy Statistics (Absolute Max) ======
  Overall Max VC Occupancy = 1
  Overall Max Buffer Occupancy = 23
latency change    = 0.525367
throughput change = 0.0618468
Class 0:
Packet latency average = 103.576
	minimum = 10
	maximum = 1905
	95th percentile = 835.5
	99th percentile = 999.5
Network latency average = 23.3077
	minimum = 10
	maximum = 155
	95th percentile = 101.5
	99th percentile = 101.5
Slowest packet = 222047
Flit latency average = 23.3063
	minimum = 10
	maximum = 155
	95th percentile = 101.5
	99th percentile = 101.5
Slowest flit = 222047
Fragmentation average = 0
	minimum = 0
	maximum = 0
Injected packet rate average = 0.364287
	minimum = 0.3378 (at node 33)
	maximum = 0.379333 (at node 23)
Accepted packet rate average = 0.363676
	minimum = 0.3363 (at node 27)
	maximum = 0.379067 (at node 32)
Injected flit rate average = 0.364287
	minimum = 0.3378 (at node 33)
	maximum = 0.379333 (at node 23)
Accepted flit rate average= 0.363676
	minimum = 0.3363 (at node 27)
	maximum = 0.379067 (at node 32)
Injected packet length average = 1
Accepted packet length average = 1
Total in-flight flits = 708 (708 measured)
====== Peak Queue Occupancy Statistics (Absolute Max) ======
  Overall Max VC Occupancy = 1
  Overall Max Buffer Occupancy = 23
latency change    = 0.454697
throughput change = 0.0556503
Class 0:
Packet latency average = 167.174
	minimum = 10
	maximum = 2848
	95th percentile = 999.5
	99th percentile = 999.5
Network latency average = 24.7512
	minimum = 10
	maximum = 155
	95th percentile = 101.5
	99th percentile = 105.5
Slowest packet = 222047
Flit latency average = 24.7498
	minimum = 10
	maximum = 155
	95th percentile = 101.5
	99th percentile = 105.5
Slowest flit = 222047
Fragmentation average = 0
	minimum = 0
	maximum = 0
Injected packet rate average = 0.383965
	minimum = 0.347485 (at node 33)
	maximum = 0.404364 (at node 23)
Accepted packet rate average = 0.383407
	minimum = 0.346121 (at node 27)
	maximum = 0.404242 (at node 32)
Injected flit rate average = 0.383965
	minimum = 0.347485 (at node 33)
	maximum = 0.404364 (at node 23)
Accepted flit rate average= 0.383407
	minimum = 0.346121 (at node 27)
	maximum = 0.404242 (at node 32)
Injected packet length average = 1
Accepted packet length average = 1
Total in-flight flits = 713 (713 measured)
====== Peak Queue Occupancy Statistics (Absolute Max) ======
  Overall Max VC Occupancy = 1
  Overall Max Buffer Occupancy = 23
latency change    = 0.380428
throughput change = 0.0514635
Class 0:
Packet latency average = 245.191
	minimum = 10
	maximum = 3986
	95th percentile = 999.5
	99th percentile = 999.5
Network latency average = 25.7365
	minimum = 10
	maximum = 155
	95th percentile = 101.5
	99th percentile = 106.5
Slowest packet = 222047
Flit latency average = 25.7352
	minimum = 10
	maximum = 155
	95th percentile = 101.5
	99th percentile = 106.5
Slowest flit = 222047
Fragmentation average = 0
	minimum = 0
	maximum = 0
Injected packet rate average = 0.403132
	minimum = 0.355583 (at node 33)
	maximum = 0.429833 (at node 23)
Accepted packet rate average = 0.402614
	minimum = 0.354333 (at node 27)
	maximum = 0.429611 (at node 32)
Injected flit rate average = 0.403132
	minimum = 0.355583 (at node 33)
	maximum = 0.429833 (at node 23)
Accepted flit rate average= 0.402614
	minimum = 0.354333 (at node 27)
	maximum = 0.429611 (at node 32)
Injected packet length average = 1
Accepted packet length average = 1
Total in-flight flits = 717 (717 measured)
====== Peak Queue Occupancy Statistics (Absolute Max) ======
  Overall Max VC Occupancy = 1
  Overall Max Buffer Occupancy = 23
latency change    = 0.31819
throughput change = 0.0477052
Class 0:
Packet latency average = 335.14
	minimum = 10
	maximum = 5197
	95th percentile = 999.5
	99th percentile = 999.5
Network latency average = 26.392
	minimum = 10
	maximum = 155
	95th percentile = 101.5
	99th percentile = 107.5
Slowest packet = 222047
Flit latency average = 26.3908
	minimum = 10
	maximum = 155
	95th percentile = 101.5
	99th percentile = 107.5
Slowest flit = 222047
Fragmentation average = 0
	minimum = 0
	maximum = 0
Injected packet rate average = 0.422099
	minimum = 0.36241 (at node 33)
	maximum = 0.454308 (at node 23)
Accepted packet rate average = 0.421605
	minimum = 0.361256 (at node 27)
	maximum = 0.454128 (at node 32)
Injected flit rate average = 0.422099
	minimum = 0.36241 (at node 33)
	maximum = 0.454308 (at node 23)
Accepted flit rate average= 0.421605
	minimum = 0.361256 (at node 27)
	maximum = 0.454128 (at node 32)
Injected packet length average = 1
Accepted packet length average = 1
Total in-flight flits = 741 (741 measured)
====== Peak Queue Occupancy Statistics (Absolute Max) ======
  Overall Max VC Occupancy = 1
  Overall Max Buffer Occupancy = 23
latency change    = 0.268393
throughput change = 0.045045
Class 0:
Packet latency average = 434.745
	minimum = 10
	maximum = 6570
	95th percentile = 999.5
	99th percentile = 999.5
Network latency average = 26.8247
	minimum = 10
	maximum = 155
	95th percentile = 101.5
	99th percentile = 107.5
Slowest packet = 222047
Flit latency average = 26.8236
	minimum = 10
	maximum = 155
	95th percentile = 101.5
	99th percentile = 107.5
Slowest flit = 222047
Fragmentation average = 0
	minimum = 0
	maximum = 0
Injected packet rate average = 0.440538
	minimum = 0.368262 (at node 33)
	maximum = 0.478548 (at node 17)
Accepted packet rate average = 0.440079
	minimum = 0.36719 (at node 27)
	maximum = 0.478357 (at node 8)
Injected flit rate average = 0.440538
	minimum = 0.368262 (at node 33)
	maximum = 0.478548 (at node 17)
Accepted flit rate average= 0.440079
	minimum = 0.36719 (at node 27)
	maximum = 0.478357 (at node 8)
Injected packet length average = 1
Accepted packet length average = 1
Total in-flight flits = 744 (744 measured)
====== Peak Queue Occupancy Statistics (Absolute Max) ======
  Overall Max VC Occupancy = 1
  Overall Max Buffer Occupancy = 23
latency change    = 0.229111
throughput change = 0.0419787
Class 0:
Packet latency average = 543.341
	minimum = 10
	maximum = 7900
	95th percentile = 999.5
	99th percentile = 999.5
Network latency average = 27.1696
	minimum = 10
	maximum = 155
	95th percentile = 101.5
	99th percentile = 107.5
Slowest packet = 222047
Flit latency average = 27.1686
	minimum = 10
	maximum = 155
	95th percentile = 101.5
	99th percentile = 107.5
Slowest flit = 222047
Fragmentation average = 0
	minimum = 0
	maximum = 0
Injected packet rate average = 0.456566
	minimum = 0.373356 (at node 33)
	maximum = 0.499867 (at node 34)
Accepted packet rate average = 0.456129
	minimum = 0.372356 (at node 27)
	maximum = 0.499733 (at node 8)
Injected flit rate average = 0.456566
	minimum = 0.373356 (at node 33)
	maximum = 0.499867 (at node 34)
Accepted flit rate average= 0.456129
	minimum = 0.372356 (at node 27)
	maximum = 0.499733 (at node 8)
Injected packet length average = 1
Accepted packet length average = 1
Total in-flight flits = 754 (754 measured)
====== Peak Queue Occupancy Statistics (Absolute Max) ======
  Overall Max VC Occupancy = 1
  Overall Max Buffer Occupancy = 23
latency change    = 0.199868
throughput change = 0.0351866
Class 0:
Packet latency average = 658.458
	minimum = 10
	maximum = 9216
	95th percentile = 999.5
	99th percentile = 999.5
Network latency average = 27.4529
	minimum = 10
	maximum = 155
	95th percentile = 101.5
	99th percentile = 110.5
Slowest packet = 222047
Flit latency average = 27.452
	minimum = 10
	maximum = 155
	95th percentile = 101.5
	99th percentile = 110.5
Slowest flit = 222047
Fragmentation average = 0
	minimum = 0
	maximum = 0
Injected packet rate average = 0.47056
	minimum = 0.377792 (at node 33)
	maximum = 0.519167 (at node 8)
Accepted packet rate average = 0.470153
	minimum = 0.376854 (at node 27)
	maximum = 0.519 (at node 26)
Injected flit rate average = 0.47056
	minimum = 0.377792 (at node 33)
	maximum = 0.519167 (at node 8)
Accepted flit rate average= 0.470153
	minimum = 0.376854 (at node 27)
	maximum = 0.519 (at node 26)
Injected packet length average = 1
Accepted packet length average = 1
Total in-flight flits = 751 (751 measured)
====== Peak Queue Occupancy Statistics (Absolute Max) ======
  Overall Max VC Occupancy = 1
  Overall Max Buffer Occupancy = 23
latency change    = 0.174828
throughput change = 0.0298281
Class 0:
Packet latency average = 778.642
	minimum = 10
	maximum = 10544
	95th percentile = 999.5
	99th percentile = 999.5
Network latency average = 27.6878
	minimum = 10
	maximum = 155
	95th percentile = 101.5
	99th percentile = 110.5
Slowest packet = 222047
Flit latency average = 27.687
	minimum = 10
	maximum = 155
	95th percentile = 101.5
	99th percentile = 110.5
Slowest flit = 222047
Fragmentation average = 0
	minimum = 0
	maximum = 0
Injected packet rate average = 0.482939
	minimum = 0.381706 (at node 33)
	maximum = 0.535725 (at node 8)
Accepted packet rate average = 0.482557
	minimum = 0.380824 (at node 27)
	maximum = 0.535588 (at node 26)
Injected flit rate average = 0.482939
	minimum = 0.381706 (at node 33)
	maximum = 0.535725 (at node 8)
Accepted flit rate average= 0.482557
	minimum = 0.380824 (at node 27)
	maximum = 0.535588 (at node 26)
Injected packet length average = 1
Accepted packet length average = 1
Total in-flight flits = 751 (751 measured)
====== Peak Queue Occupancy Statistics (Absolute Max) ======
  Overall Max VC Occupancy = 1
  Overall Max Buffer Occupancy = 23
latency change    = 0.154351
throughput change = 0.0257056
Class 0:
Packet latency average = 902.604
	minimum = 10
	maximum = 11840
	95th percentile = 999.5
	99th percentile = 999.5
Network latency average = 27.8863
	minimum = 10
	maximum = 155
	95th percentile = 101.5
	99th percentile = 110.5
Slowest packet = 222047
Flit latency average = 27.8855
	minimum = 10
	maximum = 155
	95th percentile = 101.5
	99th percentile = 110.5
Slowest flit = 222047
Fragmentation average = 0
	minimum = 0
	maximum = 0
Injected packet rate average = 0.493978
	minimum = 0.385204 (at node 33)
	maximum = 0.55087 (at node 8)
Accepted packet rate average = 0.493611
	minimum = 0.38437 (at node 27)
	maximum = 0.550722 (at node 26)
Injected flit rate average = 0.493978
	minimum = 0.385204 (at node 33)
	maximum = 0.55087 (at node 8)
Accepted flit rate average= 0.493611
	minimum = 0.38437 (at node 27)
	maximum = 0.550722 (at node 26)
Injected packet length average = 1
Accepted packet length average = 1
Total in-flight flits = 760 (760 measured)
====== Peak Queue Occupancy Statistics (Absolute Max) ======
  Overall Max VC Occupancy = 1
  Overall Max Buffer Occupancy = 23
latency change    = 0.137338
throughput change = 0.022394
Class 0:
Packet latency average = 1029.61
	minimum = 10
	maximum = 13161
	95th percentile = 999.5
	99th percentile = 999.5
Network latency average = 28.0579
	minimum = 10
	maximum = 155
	95th percentile = 101.5
	99th percentile = 110.5
Slowest packet = 222047
Flit latency average = 28.0572
	minimum = 10
	maximum = 155
	95th percentile = 101.5
	99th percentile = 110.5
Slowest flit = 222047
Fragmentation average = 0
	minimum = 0
	maximum = 0
Injected packet rate average = 0.50379
	minimum = 0.388316 (at node 33)
	maximum = 0.564193 (at node 8)
Accepted packet rate average = 0.503445
	minimum = 0.387526 (at node 27)
	maximum = 0.564053 (at node 26)
Injected flit rate average = 0.50379
	minimum = 0.388316 (at node 33)
	maximum = 0.564193 (at node 8)
Accepted flit rate average= 0.503445
	minimum = 0.387526 (at node 27)
	maximum = 0.564053 (at node 26)
Injected packet length average = 1
Accepted packet length average = 1
Total in-flight flits = 756 (756 measured)
====== Peak Queue Occupancy Statistics (Absolute Max) ======
  Overall Max VC Occupancy = 1
  Overall Max Buffer Occupancy = 23
latency change    = 0.123351
throughput change = 0.0195331
Class 0:
Packet latency average = 1158.84
	minimum = 10
	maximum = 14445
	95th percentile = 999.5
	99th percentile = 999.5
Network latency average = 28.2054
	minimum = 10
	maximum = 155
	95th percentile = 101.5
	99th percentile = 110.5
Slowest packet = 222047
Flit latency average = 28.2047
	minimum = 10
	maximum = 155
	95th percentile = 101.5
	99th percentile = 110.5
Slowest flit = 222047
Fragmentation average = 0
	minimum = 0
	maximum = 0
Injected packet rate average = 0.512669
	minimum = 0.391117 (at node 33)
	maximum = 0.5761 (at node 8)
Accepted packet rate average = 0.512342
	minimum = 0.390367 (at node 27)
	maximum = 0.575933 (at node 26)
Injected flit rate average = 0.512669
	minimum = 0.391117 (at node 33)
	maximum = 0.5761 (at node 8)
Accepted flit rate average= 0.512342
	minimum = 0.390367 (at node 27)
	maximum = 0.575933 (at node 26)
Injected packet length average = 1
Accepted packet length average = 1
Total in-flight flits = 756 (756 measured)
====== Peak Queue Occupancy Statistics (Absolute Max) ======
  Overall Max VC Occupancy = 1
  Overall Max Buffer Occupancy = 23
latency change    = 0.11152
throughput change = 0.0173648
Class 0:
Packet latency average = 1290.04
	minimum = 10
	maximum = 15805
	95th percentile = 999.5
	99th percentile = 999.5
Network latency average = 28.336
	minimum = 10
	maximum = 155
	95th percentile = 101.5
	99th percentile = 110.5
Slowest packet = 222047
Flit latency average = 28.3353
	minimum = 10
	maximum = 155
	95th percentile = 101.5
	99th percentile = 110.5
Slowest flit = 222047
Fragmentation average = 0
	minimum = 0
	maximum = 0
Injected packet rate average = 0.52066
	minimum = 0.393667 (at node 33)
	maximum = 0.586508 (at node 8)
Accepted packet rate average = 0.520349
	minimum = 0.392952 (at node 27)
	maximum = 0.586381 (at node 26)
Injected flit rate average = 0.52066
	minimum = 0.393667 (at node 33)
	maximum = 0.586508 (at node 8)
Accepted flit rate average= 0.520349
	minimum = 0.392952 (at node 27)
	maximum = 0.586381 (at node 26)
Injected packet length average = 1
Accepted packet length average = 1
Total in-flight flits = 751 (751 measured)
====== Peak Queue Occupancy Statistics (Absolute Max) ======
  Overall Max VC Occupancy = 1
  Overall Max Buffer Occupancy = 23
latency change    = 0.101701
throughput change = 0.0153879
Class 0:
Packet latency average = 1422.7
	minimum = 10
	maximum = 17137
	95th percentile = 999.5
	99th percentile = 999.5
Network latency average = 28.4497
	minimum = 10
	maximum = 155
	95th percentile = 101.5
	99th percentile = 110.5
Slowest packet = 222047
Flit latency average = 28.4491
	minimum = 10
	maximum = 155
	95th percentile = 101.5
	99th percentile = 110.5
Slowest flit = 222047
Fragmentation average = 0
	minimum = 0
	maximum = 0
Injected packet rate average = 0.527962
	minimum = 0.39597 (at node 33)
	maximum = 0.596682 (at node 34)
Accepted packet rate average = 0.527666
	minimum = 0.395288 (at node 27)
	maximum = 0.596591 (at node 25)
Injected flit rate average = 0.527962
	minimum = 0.39597 (at node 33)
	maximum = 0.596682 (at node 34)
Accepted flit rate average= 0.527666
	minimum = 0.395288 (at node 27)
	maximum = 0.596591 (at node 25)
Injected packet length average = 1
Accepted packet length average = 1
Total in-flight flits = 752 (752 measured)
====== Peak Queue Occupancy Statistics (Absolute Max) ======
  Overall Max VC Occupancy = 1
  Overall Max Buffer Occupancy = 23
latency change    = 0.0932449
throughput change = 0.0138668
Class 0:
Packet latency average = 1556.7
	minimum = 10
	maximum = 18481
	95th percentile = 999.5
	99th percentile = 999.5
Network latency average = 28.5505
	minimum = 10
	maximum = 155
	95th percentile = 101.5
	99th percentile = 110.5
Slowest packet = 222047
Flit latency average = 28.5499
	minimum = 10
	maximum = 155
	95th percentile = 101.5
	99th percentile = 110.5
Slowest flit = 222047
Fragmentation average = 0
	minimum = 0
	maximum = 0
Injected packet rate average = 0.534649
	minimum = 0.398072 (at node 33)
	maximum = 0.60558 (at node 34)
Accepted packet rate average = 0.534364
	minimum = 0.39742 (at node 27)
	maximum = 0.605478 (at node 25)
Injected flit rate average = 0.534649
	minimum = 0.398072 (at node 33)
	maximum = 0.60558 (at node 34)
Accepted flit rate average= 0.534364
	minimum = 0.39742 (at node 27)
	maximum = 0.605478 (at node 25)
Injected packet length average = 1
Accepted packet length average = 1
Total in-flight flits = 759 (759 measured)
====== Peak Queue Occupancy Statistics (Absolute Max) ======
  Overall Max VC Occupancy = 1
  Overall Max Buffer Occupancy = 23
latency change    = 0.0860823
throughput change = 0.012534
Class 0:
Packet latency average = 1692.23
	minimum = 10
	maximum = 19799
	95th percentile = 999.5
	99th percentile = 999.5
Network latency average = 28.6433
	minimum = 10
	maximum = 155
	95th percentile = 101.5
	99th percentile = 110.5
Slowest packet = 222047
Flit latency average = 28.6428
	minimum = 10
	maximum = 155
	95th percentile = 101.5
	99th percentile = 110.5
Slowest flit = 222047
Fragmentation average = 0
	minimum = 0
	maximum = 0
Injected packet rate average = 0.540693
	minimum = 0.400014 (at node 33)
	maximum = 0.613403 (at node 34)
Accepted packet rate average = 0.540424
	minimum = 0.399389 (at node 27)
	maximum = 0.613333 (at node 25)
Injected flit rate average = 0.540693
	minimum = 0.400014 (at node 33)
	maximum = 0.613403 (at node 34)
Accepted flit rate average= 0.540424
	minimum = 0.399389 (at node 27)
	maximum = 0.613333 (at node 25)
Injected packet length average = 1
Accepted packet length average = 1
Total in-flight flits = 744 (744 measured)
====== Peak Queue Occupancy Statistics (Absolute Max) ======
  Overall Max VC Occupancy = 1
  Overall Max Buffer Occupancy = 23
latency change    = 0.0800879
throughput change = 0.0112143
Draining all recorded packets ...
Class 0:
Remaining flits: 1438445 1438793 1439131 1439179 1439202 1439297 1439361 1439378 1439524 1439632 [...] (758 flits)
Measured flits: 1438445 1438793 1439131 1439179 1439202 1439297 1439361 1439378 1439524 1439632 [...] (560 flits)
Class 0:
Remaining flits: 1463082 1463103 1463207 1463261 1463279 1463421 1463541 1463546 1463549 1463577 [...] (742 flits)
Measured flits: 1463082 1463103 1463207 1463261 1463279 1463421 1463541 1463546 1463549 1463577 [...] (556 flits)
Class 0:
Remaining flits: 1487913 1488238 1488293 1488312 1488415 1488466 1488481 1488627 1488739 1488743 [...] (754 flits)
Measured flits: 1487913 1488238 1488293 1488312 1488415 1488466 1488481 1488627 1488739 1488743 [...] (558 flits)
Class 0:
Remaining flits: 1512271 1512377 1512432 1512449 1512592 1512699 1512705 1512707 1512736 1512841 [...] (749 flits)
Measured flits: 1512271 1512377 1512432 1512449 1512592 1512699 1512705 1512707 1512736 1512841 [...] (558 flits)
Class 0:
Remaining flits: 1537148 1537477 1537528 1537548 1537644 1537700 1537715 1537857 1537972 1537977 [...] (740 flits)
Measured flits: 1537148 1537477 1537528 1537548 1537644 1537700 1537715 1537857 1537972 1537977 [...] (556 flits)
Class 0:
Remaining flits: 1561556 1561610 1561626 1561759 1561878 1561883 1561886 1561916 1562021 1562371 [...] (751 flits)
Measured flits: 1561556 1561610 1561626 1561759 1561878 1561883 1561886 1561916 1562021 1562371 [...] (558 flits)
Class 0:
Remaining flits: 1586194 1586522 1586575 1586591 1586689 1586740 1586757 1586895 1587012 1587017 [...] (750 flits)
Measured flits: 1586194 1586522 1586575 1586591 1586689 1586740 1586757 1586895 1587012 1587017 [...] (556 flits)
Class 0:
Remaining flits: 1610674 1610727 1610743 1610887 1610995 1611001 1611003 1611031 1611131 1611482 [...] (763 flits)
Measured flits: 1610674 1610727 1610743 1610887 1610995 1611001 1611003 1611031 1611131 1611482 [...] (560 flits)
Class 0:
Remaining flits: 1635289 1635671 1635693 1635801 1635858 1635874 1636016 1636128 1636134 1636137 [...] (757 flits)
Measured flits: 1635289 1635671 1635693 1635801 1635858 1635874 1636016 1636128 1636134 1636137 [...] (554 flits)
Class 0:
Remaining flits: 1659726 1659866 1659976 1659981 1659983 1660015 1660123 1660474 1660809 1660862 [...] (749 flits)
Measured flits: 1659726 1659866 1659976 1659981 1659983 1660015 1660123 1660474 1660809 1660862 [...] (560 flits)
Class 0:
Remaining flits: 1684321 1684710 1684730 1684831 1684886 1684901 1685041 1685150 1685155 1685158 [...] (741 flits)
Measured flits: 1684321 1684710 1684730 1684831 1684886 1684901 1685041 1685150 1685155 1685158 [...] (556 flits)
Class 0:
Remaining flits: 1708861 1708973 1708979 1708982 1709009 1709112 1709460 1709789 1709842 1709861 [...] (746 flits)
Measured flits: 1708861 1708973 1708979 1708982 1709009 1709112 1709460 1709789 1709842 1709861 [...] (558 flits)
Class 0:
Remaining flits: 1733288 1733674 1733695 1733800 1733852 1733866 1734008 1734130 1734136 1734139 [...] (747 flits)
Measured flits: 1733288 1733674 1733695 1733800 1733852 1733866 1734008 1734130 1734136 1734139 [...] (558 flits)
Class 0:
Remaining flits: 1757782 1757891 1757895 1757897 1757926 1758026 1758385 1758703 1758756 1758778 [...] (739 flits)
Measured flits: 1757782 1757891 1757895 1757897 1757926 1758026 1758385 1758703 1758756 1758778 [...] (556 flits)
Class 0:
Remaining flits: 1782664 1782687 1782791 1782846 1782862 1782998 1783108 1783113 1783115 1783146 [...] (750 flits)
Measured flits: 1782664 1782687 1782791 1782846 1782862 1782998 1783108 1783113 1783115 1783146 [...] (558 flits)
Class 0:
Remaining flits: 1806701 1806814 1806818 1806821 1806848 1806960 1807300 1807643 1807699 1807719 [...] (747 flits)
Measured flits: 1806701 1806814 1806818 1806821 1806848 1806960 1807300 1807643 1807699 1807719 [...] (556 flits)
Class 0:
Remaining flits: 1831590 1831611 1831709 1831761 1831779 1831913 1832016 1832020 1832023 1832055 [...] (746 flits)
Measured flits: 1831590 1831611 1831709 1831761 1831779 1831913 1832016 1832020 1832023 1832055 [...] (560 flits)
Class 0:
Remaining flits: 1855915 1855919 1855922 1855948 1856058 1856415 1856740 1856793 1856810 1856906 [...] (744 flits)
Measured flits: 1855915 1855919 1855922 1855948 1856058 1856415 1856740 1856793 1856810 1856906 [...] (554 flits)
Class 0:
Remaining flits: 1880635 1880656 1880763 1880820 1880838 1880977 1881096 1881102 1881105 1881134 [...] (750 flits)
Measured flits: 1880635 1880656 1880763 1880820 1880838 1880977 1881096 1881102 1881105 1881134 [...] (560 flits)
Class 0:
Remaining flits: 1904984 1904992 1905019 1905130 1905480 1905816 1905873 1905893 1905994 1906048 [...] (745 flits)
Measured flits: 1904984 1904992 1905019 1905130 1905480 1905816 1905873 1905893 1905994 1906048 [...] (556 flits)
Class 0:
Remaining flits: 1929752 1929771 1929867 1929923 1929942 1930087 1930199 1930204 1930207 1930231 [...] (758 flits)
Measured flits: 1929752 1929771 1929867 1929923 1929942 1930087 1930199 1930204 1930207 1930231 [...] (558 flits)
Class 0:
Remaining flits: 1954102 1954131 1954233 1954581 1954909 1954961 1954981 1955079 1955129 1955146 [...] (751 flits)
Measured flits: 1954102 1954131 1954233 1954581 1954909 1954961 1954981 1955079 1955129 1955146 [...] (558 flits)
Class 0:
Remaining flits: 1978953 1978977 1979071 1979129 1979148 1979287 1979406 1979412 1979414 1979442 [...] (745 flits)
Measured flits: 1978953 1978977 1979071 1979129 1979148 1979287 1979406 1979412 1979414 1979442 [...] (556 flits)
Class 0:
Remaining flits: 2003348 2003700 2004029 2004084 2004106 2004210 2004267 2004282 2004420 2004527 [...] (742 flits)
Measured flits: 2003348 2003700 2004029 2004084 2004106 2004210 2004267 2004282 2004420 2004527 [...] (558 flits)
Class 0:
Remaining flits: 2027930 2027953 2028059 2028112 2028129 2028264 2028382 2028387 2028390 2028420 [...] (741 flits)
Measured flits: 2027930 2027953 2028059 2028112 2028129 2028264 2028382 2028387 2028390 2028420 [...] (556 flits)
Class 0:
Remaining flits: 2052360 2052718 2053042 2053094 2053113 2053210 2053265 2053282 2053424 2053536 [...] (760 flits)
Measured flits: 2052360 2052718 2053042 2053094 2053113 2053210 2053265 2053282 2053424 2053536 [...] (560 flits)
Class 0:
Remaining flits: 2076900 2076921 2077023 2077078 2077095 2077232 2077344 2077349 2077351 2077379 [...] (743 flits)
Measured flits: 2076900 2076921 2077023 2077078 2077095 2077232 2077344 2077349 2077351 2077379 [...] (554 flits)
Class 0:
Remaining flits: 2101291 2101646 2101991 2102040 2102059 2102159 2102218 2102236 2102372 2102485 [...] (750 flits)
Measured flits: 2101291 2101646 2101991 2102040 2102059 2102159 2102218 2102236 2102372 2102485 [...] (560 flits)
Class 0:
Remaining flits: 2125815 2125837 2125932 2125991 2126008 2126154 2126268 2126273 2126276 2126308 [...] (752 flits)
Measured flits: 2125815 2125837 2125932 2125991 2126008 2126154 2126268 2126273 2126276 2126308 [...] (556 flits)
Class 0:
Remaining flits: 2150616 2150949 2151004 2151024 2151132 2151188 2151206 2151338 2151447 2151452 [...] (750 flits)
Measured flits: 2150616 2150949 2151004 2151024 2151132 2151188 2151206 2151338 2151447 2151452 [...] (558 flits)
Class 0:
Remaining flits: 2174920 2175018 2175076 2175088 2175227 2175348 2175353 2175356 2175385 2175487 [...] (754 flits)
Measured flits: 2174920 2175018 2175076 2175088 2175227 2175348 2175353 2175356 2175385 2175487 [...] (558 flits)
Class 0:
Remaining flits: 2199692 2200025 2200072 2200094 2200188 2200240 2200259 2200397 2200509 2200515 [...] (750 flits)
Measured flits: 2199692 2200025 2200072 2200094 2200188 2200240 2200259 2200397 2200509 2200515 [...] (556 flits)
Class 0:
Remaining flits: 2223964 2224017 2224034 2224178 2224283 2224289 2224292 2224320 2224428 2224770 [...] (759 flits)
Measured flits: 2223964 2224017 2224034 2224178 2224283 2224289 2224292 2224320 2224428 2224770 [...] (558 flits)
Class 0:
Remaining flits: 2248600 2248924 2248974 2248998 2249079 2249137 2249153 2249293 2249409 2249414 [...] (747 flits)
Measured flits: 2248600 2248924 2248974 2248998 2249079 2249137 2249153 2249293 2249409 2249414 [...] (556 flits)
Class 0:
Remaining flits: 2272970 2273026 2273043 2273181 2273292 2273298 2273300 2273328 2273435 2273774 [...] (743 flits)
Measured flits: 2272970 2273026 2273043 2273181 2273292 2273298 2273300 2273328 2273435 2273774 [...] (560 flits)
Draining remaining packets ...
Time taken is 113861 cycles
====== Overall Traffic Statistics ======
====== Traffic class 0 ======
Packet latency average = 4756.09 (1 samples)
	minimum = 10 (1 samples)
	maximum = 35762 (1 samples)
Network latency average = 37.4972 (1 samples)
	minimum = 10 (1 samples)
	maximum = 155 (1 samples)
Flit latency average = 29.284 (1 samples)
	minimum = 10 (1 samples)
	maximum = 155 (1 samples)
Fragmentation average = 0 (1 samples)
	minimum = 0 (1 samples)
	maximum = 0 (1 samples)
Injected packet rate average = 0.540693 (1 samples)
	minimum = 0.400014 (1 samples)
	maximum = 0.613403 (1 samples)
Accepted packet rate average = 0.540424 (1 samples)
	minimum = 0.399389 (1 samples)
	maximum = 0.613333 (1 samples)
Injected flit rate average = 0.540693 (1 samples)
	minimum = 0.400014 (1 samples)
	maximum = 0.613403 (1 samples)
Accepted flit rate average = 0.540424 (1 samples)
	minimum = 0.399389 (1 samples)
	maximum = 0.613333 (1 samples)
Injected packet size average = 1 (1 samples)
Accepted packet size average = 1 (1 samples)
Hops average = 2 (1 samples)
Total run time 56.212
====== Observed Edge Statistics ======
edge_capacity = 1
Edge (0 -> 3) dst_input_port=2 max_buffer_ratio=1 buffer_over_90_fraction=0.39844 buffer_full_fraction=0.39844 max_full_streak=1 edge_capacity=0.444444 max_edge_load=0.445 max_edge_utilization=1.00125 total_traversals=45362 buffer_exploded=1 load_exceeded_capacity=1
Edge (1 -> 10) dst_input_port=0 max_buffer_ratio=1 buffer_over_90_fraction=2.63528e-05 buffer_full_fraction=2.63528e-05 max_full_streak=1 edge_capacity=1 max_edge_load=0.834 max_edge_utilization=0.834 total_traversals=72990 buffer_exploded=1 load_exceeded_capacity=0
Edge (2 -> 20) dst_input_port=0 max_buffer_ratio=1 buffer_over_90_fraction=0.00037776 buffer_full_fraction=0.00037776 max_full_streak=1 edge_capacity=1 max_edge_load=0.833 max_edge_utilization=0.833 total_traversals=72895 buffer_exploded=1 load_exceeded_capacity=0
Edge (3 -> 6) dst_input_port=5 max_buffer_ratio=1 buffer_over_90_fraction=0.398124 buffer_full_fraction=0.398124 max_full_streak=1 edge_capacity=0.444444 max_edge_load=0.445 max_edge_utilization=1.00125 total_traversals=45324 buffer_exploded=1 load_exceeded_capacity=1
Edge (4 -> 13) dst_input_port=0 max_buffer_ratio=1 buffer_over_90_fraction=0.00107178 buffer_full_fraction=0.00107178 max_full_streak=1 edge_capacity=1 max_edge_load=0.833 max_edge_utilization=0.833 total_traversals=72999 buffer_exploded=1 load_exceeded_capacity=0
Edge (5 -> 23) dst_input_port=0 max_buffer_ratio=1 buffer_over_90_fraction=6.14839e-05 buffer_full_fraction=6.14839e-05 max_full_streak=1 edge_capacity=1 max_edge_load=0.827 max_edge_utilization=0.827 total_traversals=73015 buffer_exploded=1 load_exceeded_capacity=0
Edge (6 -> 0) dst_input_port=7 max_buffer_ratio=1 buffer_over_90_fraction=0.398057 buffer_full_fraction=0.398057 max_full_streak=1 edge_capacity=0.444444 max_edge_load=0.445 max_edge_utilization=1.00125 total_traversals=45312 buffer_exploded=1 load_exceeded_capacity=1
Edge (7 -> 16) dst_input_port=0 max_buffer_ratio=1 buffer_over_90_fraction=0.000105406 buffer_full_fraction=0.000105406 max_full_streak=1 edge_capacity=1 max_edge_load=0.829 max_edge_utilization=0.829 total_traversals=72952 buffer_exploded=1 load_exceeded_capacity=0
Edge (8 -> 26) dst_input_port=0 max_buffer_ratio=1 buffer_over_90_fraction=0.000105416 buffer_full_fraction=0.000105416 max_full_streak=1 edge_capacity=1 max_edge_load=0.833 max_edge_utilization=0.833 total_traversals=73219 buffer_exploded=1 load_exceeded_capacity=0
Edge (9 -> 12) dst_input_port=2 max_buffer_ratio=1 buffer_over_90_fraction=0.39779 buffer_full_fraction=0.39779 max_full_streak=1 edge_capacity=0.444444 max_edge_load=0.445 max_edge_utilization=1.00125 total_traversals=45278 buffer_exploded=1 load_exceeded_capacity=1
Edge (10 -> 28) dst_input_port=0 max_buffer_ratio=1 buffer_over_90_fraction=5.27032e-05 buffer_full_fraction=5.27032e-05 max_full_streak=1 edge_capacity=1 max_edge_load=0.831 max_edge_utilization=0.831 total_traversals=72945 buffer_exploded=1 load_exceeded_capacity=0
Edge (11 -> 2) dst_input_port=0 max_buffer_ratio=1 buffer_over_90_fraction=7.90583e-05 buffer_full_fraction=7.90583e-05 max_full_streak=1 edge_capacity=1 max_edge_load=0.832 max_edge_utilization=0.832 total_traversals=73037 buffer_exploded=1 load_exceeded_capacity=0
Edge (12 -> 15) dst_input_port=5 max_buffer_ratio=1 buffer_over_90_fraction=0.39824 buffer_full_fraction=0.39824 max_full_streak=1 edge_capacity=0.444444 max_edge_load=0.445 max_edge_utilization=1.00125 total_traversals=45340 buffer_exploded=1 load_exceeded_capacity=1
Edge (13 -> 31) dst_input_port=0 max_buffer_ratio=1 buffer_over_90_fraction=9.66328e-05 buffer_full_fraction=9.66328e-05 max_full_streak=1 edge_capacity=1 max_edge_load=0.828 max_edge_utilization=0.828 total_traversals=73153 buffer_exploded=1 load_exceeded_capacity=0
Edge (14 -> 5) dst_input_port=0 max_buffer_ratio=1 buffer_over_90_fraction=0.000404058 buffer_full_fraction=0.000404058 max_full_streak=1 edge_capacity=1 max_edge_load=0.825 max_edge_utilization=0.825 total_traversals=72900 buffer_exploded=1 load_exceeded_capacity=0
Edge (15 -> 9) dst_input_port=7 max_buffer_ratio=1 buffer_over_90_fraction=0.397235 buffer_full_fraction=0.397235 max_full_streak=1 edge_capacity=0.444444 max_edge_load=0.445 max_edge_utilization=1.00125 total_traversals=45224 buffer_exploded=1 load_exceeded_capacity=1
Edge (16 -> 34) dst_input_port=0 max_buffer_ratio=1 buffer_over_90_fraction=3.51373e-05 buffer_full_fraction=3.51373e-05 max_full_streak=1 edge_capacity=1 max_edge_load=0.829 max_edge_utilization=0.829 total_traversals=73029 buffer_exploded=1 load_exceeded_capacity=0
Edge (17 -> 8) dst_input_port=0 max_buffer_ratio=1 buffer_over_90_fraction=0.00063245 buffer_full_fraction=0.00063245 max_full_streak=1 edge_capacity=1 max_edge_load=0.822 max_edge_utilization=0.822 total_traversals=73132 buffer_exploded=1 load_exceeded_capacity=0
Edge (18 -> 21) dst_input_port=2 max_buffer_ratio=1 buffer_over_90_fraction=0.39864 buffer_full_fraction=0.39864 max_full_streak=1 edge_capacity=0.444444 max_edge_load=0.445 max_edge_utilization=1.00125 total_traversals=45386 buffer_exploded=1 load_exceeded_capacity=1
Edge (19 -> 1) dst_input_port=1 max_buffer_ratio=1 buffer_over_90_fraction=6.14914e-05 buffer_full_fraction=6.14914e-05 max_full_streak=1 edge_capacity=1 max_edge_load=0.832 max_edge_utilization=0.832 total_traversals=72827 buffer_exploded=1 load_exceeded_capacity=0
Edge (20 -> 29) dst_input_port=1 max_buffer_ratio=1 buffer_over_90_fraction=0.000395247 buffer_full_fraction=0.000395247 max_full_streak=1 edge_capacity=1 max_edge_load=0.826 max_edge_utilization=0.826 total_traversals=72774 buffer_exploded=1 load_exceeded_capacity=0
Edge (21 -> 24) dst_input_port=5 max_buffer_ratio=1 buffer_over_90_fraction=0.397098 buffer_full_fraction=0.397098 max_full_streak=1 edge_capacity=0.444444 max_edge_load=0.445 max_edge_utilization=1.00125 total_traversals=45191 buffer_exploded=1 load_exceeded_capacity=1
Edge (22 -> 4) dst_input_port=1 max_buffer_ratio=1 buffer_over_90_fraction=0.000272283 buffer_full_fraction=0.000272283 max_full_streak=1 edge_capacity=1 max_edge_load=0.841 max_edge_utilization=0.841 total_traversals=73020 buffer_exploded=1 load_exceeded_capacity=0
Edge (23 -> 32) dst_input_port=1 max_buffer_ratio=1 buffer_over_90_fraction=0.000316239 buffer_full_fraction=0.000316239 max_full_streak=1 edge_capacity=1 max_edge_load=0.826 max_edge_utilization=0.826 total_traversals=73189 buffer_exploded=1 load_exceeded_capacity=0
Edge (24 -> 18) dst_input_port=7 max_buffer_ratio=1 buffer_over_90_fraction=0.398566 buffer_full_fraction=0.398566 max_full_streak=1 edge_capacity=0.444444 max_edge_load=0.445 max_edge_utilization=1.00125 total_traversals=45356 buffer_exploded=1 load_exceeded_capacity=1
Edge (25 -> 7) dst_input_port=1 max_buffer_ratio=1 buffer_over_90_fraction=0.000114194 buffer_full_fraction=0.000114194 max_full_streak=1 edge_capacity=1 max_edge_load=0.822 max_edge_utilization=0.822 total_traversals=72709 buffer_exploded=1 load_exceeded_capacity=0
Edge (26 -> 35) dst_input_port=1 max_buffer_ratio=1 buffer_over_90_fraction=8.78349e-06 buffer_full_fraction=8.78349e-06 max_full_streak=1 edge_capacity=1 max_edge_load=0.831 max_edge_utilization=0.831 total_traversals=73124 buffer_exploded=1 load_exceeded_capacity=0
Edge (27 -> 30) dst_input_port=2 max_buffer_ratio=1 buffer_over_90_fraction=0.398868 buffer_full_fraction=0.398868 max_full_streak=1 edge_capacity=0.444444 max_edge_load=0.445 max_edge_utilization=1.00125 total_traversals=45392 buffer_exploded=1 load_exceeded_capacity=1
Edge (28 -> 19) dst_input_port=1 max_buffer_ratio=1 buffer_over_90_fraction=3.51475e-05 buffer_full_fraction=3.51475e-05 max_full_streak=1 edge_capacity=1 max_edge_load=0.828 max_edge_utilization=0.828 total_traversals=73322 buffer_exploded=1 load_exceeded_capacity=0
Edge (29 -> 11) dst_input_port=1 max_buffer_ratio=1 buffer_over_90_fraction=0.000122968 buffer_full_fraction=0.000122968 max_full_streak=1 edge_capacity=1 max_edge_load=0.819 max_edge_utilization=0.819 total_traversals=72713 buffer_exploded=1 load_exceeded_capacity=0
Edge (30 -> 33) dst_input_port=5 max_buffer_ratio=1 buffer_over_90_fraction=0.397627 buffer_full_fraction=0.397627 max_full_streak=1 edge_capacity=0.444444 max_edge_load=0.445 max_edge_utilization=1.00125 total_traversals=45271 buffer_exploded=1 load_exceeded_capacity=1
Edge (31 -> 22) dst_input_port=1 max_buffer_ratio=1 buffer_over_90_fraction=0.000333775 buffer_full_fraction=0.000333775 max_full_streak=1 edge_capacity=1 max_edge_load=0.835 max_edge_utilization=0.835 total_traversals=73001 buffer_exploded=1 load_exceeded_capacity=0
Edge (32 -> 14) dst_input_port=1 max_buffer_ratio=1 buffer_over_90_fraction=3.51457e-05 buffer_full_fraction=3.51457e-05 max_full_streak=1 edge_capacity=1 max_edge_load=0.827 max_edge_utilization=0.827 total_traversals=72773 buffer_exploded=1 load_exceeded_capacity=0
Edge (33 -> 27) dst_input_port=7 max_buffer_ratio=1 buffer_over_90_fraction=0.396456 buffer_full_fraction=0.396456 max_full_streak=1 edge_capacity=0.444444 max_edge_load=0.445 max_edge_utilization=1.00125 total_traversals=45131 buffer_exploded=1 load_exceeded_capacity=1
Edge (34 -> 25) dst_input_port=1 max_buffer_ratio=1 buffer_over_90_fraction=4.39174e-05 buffer_full_fraction=4.39174e-05 max_full_streak=1 edge_capacity=1 max_edge_load=0.83 max_edge_utilization=0.83 total_traversals=73194 buffer_exploded=1 load_exceeded_capacity=0
Edge (35 -> 17) dst_input_port=1 max_buffer_ratio=1 buffer_over_90_fraction=0.00011421 buffer_full_fraction=0.00011421 max_full_streak=1 edge_capacity=1 max_edge_load=0.822 max_edge_utilization=0.822 total_traversals=72701 buffer_exploded=1 load_exceeded_capacity=0
Observed edge count = 36
Observed edge max buffer ratio = 1
Observed edge max load = 0.841
Observed edge max utilization = 1.00125
Observed edge avg over-0.9 buffer fraction = 0.132779
Observed edge avg full-buffer fraction = 0.132779
Observed edge max over-0.9 buffer fraction = 0.398868
Observed edge max full-buffer fraction = 0.398868
Observed edge worst full-buffer streak = 1
Observed edge exploded buffer count = 36
Observed edge exceeded capacity count = 12

