BEGIN Configuration File: D:\noc_huawei\noc\booksim2-noc_speedup_study\booksim2-noc_speedup_study\tests\data\results\p3_ramp_to_0p6_hold_current_scheme\tmp_configs\linear_scale_hybrid_xy_racke_s2202.config
num_vcs     = 48;
vc_buf_size = 16;
wait_for_tail_credit = 1;

vc_allocator = islip;
sw_allocator = islip;
alloc_iters  = 16;

credit_delay   = 2;
routing_delay  = 0;
vc_alloc_delay = 1;
sw_alloc_delay = 1;
st_final_delay = 1;

input_speedup     = 1;
output_speedup    = 1;
internal_speedup  = 2.0;

sim_type = latency;
latency_thres  = 100000.0;
sim_count      = 1;
queue_sample_period_cycles = 0;

topology = mesh;
k  = 3;
n  = 2;

hybrid_transition_mode = linear_prob;
hybrid_xy_low_threshold = 0.35;
hybrid_racke_high_threshold = 0.65;
hybrid_buffer_soft_threshold = 0.50;
hybrid_buffer_hard_threshold = 0.85;
hybrid_buffer_release_threshold = 0.35;
hybrid_rate_soft_threshold = 0.55;
hybrid_rate_hard_threshold = 0.90;
hybrid_rate_weight = 0.25;
hybrid_congestion_alpha = 0.25;
hybrid_racke_increase_step = 0.25;
hybrid_racke_decrease_step = 0.10;
hybrid_epoch_cycles = 200;
hybrid_hold_cycles = 600;
hybrid_enable_midflight_override = 1;
hybrid_feedback_delay_per_hop = 1;
hybrid_flow_increase_step = 0.20;
hybrid_flow_decrease_step = 0.08;
hybrid_flow_hard_threshold = 0.95;

packet_size = 1;


ordered_injection_coefficients = {0.1666666667,0.3333333333,0.5};
ordered_injection_phase_cycles = {1000,1000,1000};
ordered_injection_source_order = {4,0,7,2,8,1,5,3,6};
ordered_injection_flow_peak_rate = 0.60;
warmup_periods = 2;
custom_perm_array = {4,7,6,5,1,2,0,8,3};
injection_process = scheduled;
injection_rate = 0.6;
scheduled_default_phase_cycles = 3000;
perm_seed = 2202;
hybrid_flow_hotspot_alpha = 0.85;
hybrid_stats_window_cycles = 3000;
hybrid_flow_hotspot_threshold = 0.8;
sample_period = 3000;
scheduled_injection_rates = {0.05,0.1,0.15,0.2,0.25,0.3,0.35,0.4,0.45,0.5,0.55,0.6,0.6,0.6,0.6,0.6};
traffic = custom_perm;
routing_function = hybrid_xy_racke;
scheduled_phase_cycles = {3000,3000,3000,3000,3000,3000,3000,3000,3000,3000,3000,3000,3000,3000,3000,3000};
seed = 2202;
max_samples = 24;

END Configuration File: D:\noc_huawei\noc\booksim2-noc_speedup_study\booksim2-noc_speedup_study\tests\data\results\p3_ramp_to_0p6_hold_current_scheme\tmp_configs\linear_scale_hybrid_xy_racke_s2202.config
Class 0:
Packet latency average = 11.0132
	minimum = 8
	maximum = 17
	95th percentile = 17.5
	99th percentile = 17.5
Network latency average = 11.0132
	minimum = 8
	maximum = 17
	95th percentile = 17.5
	99th percentile = 17.5
Slowest packet = 1
Flit latency average = 11.0132
	minimum = 8
	maximum = 17
	95th percentile = 17.5
	99th percentile = 17.5
Slowest flit = 1
Fragmentation average = 0
	minimum = 0
	maximum = 0
Injected packet rate average = 0.0506296
	minimum = 0.046 (at node 2)
	maximum = 0.0553333 (at node 8)
Accepted packet rate average = 0.0505185
	minimum = 0.0456667 (at node 6)
	maximum = 0.0553333 (at node 3)
Injected flit rate average = 0.0506296
	minimum = 0.046 (at node 2)
	maximum = 0.0553333 (at node 8)
Accepted flit rate average= 0.0505185
	minimum = 0.0456667 (at node 6)
	maximum = 0.0553333 (at node 3)
Injected packet length average = 1
Accepted packet length average = 1
Total in-flight flits = 3 (0 measured)
====== Peak Queue Occupancy Statistics (Absolute Max) ======
  Overall Max VC Occupancy = 1
  Overall Max Buffer Occupancy = 2
latency change    = 1
throughput change = 1
Class 0:
Packet latency average = 10.985
	minimum = 8
	maximum = 17
	95th percentile = 17.5
	99th percentile = 17.5
Network latency average = 10.985
	minimum = 8
	maximum = 17
	95th percentile = 17.5
	99th percentile = 17.5
Slowest packet = 1
Flit latency average = 10.985
	minimum = 8
	maximum = 17
	95th percentile = 17.5
	99th percentile = 17.5
Slowest flit = 1
Fragmentation average = 0
	minimum = 0
	maximum = 0
Injected packet rate average = 0.0744815
	minimum = 0.069 (at node 6)
	maximum = 0.0775 (at node 5)
Accepted packet rate average = 0.0742963
	minimum = 0.069 (at node 0)
	maximum = 0.077 (at node 2)
Injected flit rate average = 0.0744815
	minimum = 0.069 (at node 6)
	maximum = 0.0775 (at node 5)
Accepted flit rate average= 0.0742963
	minimum = 0.069 (at node 0)
	maximum = 0.077 (at node 2)
Injected packet length average = 1
Accepted packet length average = 1
Total in-flight flits = 10 (0 measured)
====== Peak Queue Occupancy Statistics (Absolute Max) ======
  Overall Max VC Occupancy = 1
  Overall Max Buffer Occupancy = 2
latency change    = 0.00256272
throughput change = 0.32004
Warmed up ...Time used is 6000 cycles
Class 0:
Packet latency average = 10.9581
	minimum = 8
	maximum = 17
	95th percentile = 17.5
	99th percentile = 17.5
Network latency average = 10.9581
	minimum = 8
	maximum = 17
	95th percentile = 17.5
	99th percentile = 17.5
Slowest packet = 4035
Flit latency average = 10.9575
	minimum = 8
	maximum = 17
	95th percentile = 17.5
	99th percentile = 17.5
Slowest flit = 4014
Fragmentation average = 0
	minimum = 0
	maximum = 0
Injected packet rate average = 0.149889
	minimum = 0.137667 (at node 2)
	maximum = 0.160333 (at node 5)
Accepted packet rate average = 0.149741
	minimum = 0.137333 (at node 6)
	maximum = 0.161 (at node 2)
Injected flit rate average = 0.149889
	minimum = 0.137667 (at node 2)
	maximum = 0.160333 (at node 5)
Accepted flit rate average= 0.149741
	minimum = 0.137333 (at node 6)
	maximum = 0.161 (at node 2)
Injected packet length average = 1
Accepted packet length average = 1
Total in-flight flits = 14 (14 measured)
====== Peak Queue Occupancy Statistics (Absolute Max) ======
  Overall Max VC Occupancy = 1
  Overall Max Buffer Occupancy = 2
latency change    = 0.00245929
throughput change = 0.503834
Class 0:
Packet latency average = 11.0059
	minimum = 8
	maximum = 17
	95th percentile = 17.5
	99th percentile = 17.5
Network latency average = 11.0059
	minimum = 8
	maximum = 17
	95th percentile = 17.5
	99th percentile = 17.5
Slowest packet = 4035
Flit latency average = 11.0056
	minimum = 8
	maximum = 17
	95th percentile = 17.5
	99th percentile = 17.5
Slowest flit = 4014
Fragmentation average = 0
	minimum = 0
	maximum = 0
Injected packet rate average = 0.176463
	minimum = 0.164333 (at node 2)
	maximum = 0.183667 (at node 6)
Accepted packet rate average = 0.176204
	minimum = 0.1635 (at node 6)
	maximum = 0.183333 (at node 0)
Injected flit rate average = 0.176463
	minimum = 0.164333 (at node 2)
	maximum = 0.183667 (at node 6)
Accepted flit rate average= 0.176204
	minimum = 0.1635 (at node 6)
	maximum = 0.183333 (at node 0)
Injected packet length average = 1
Accepted packet length average = 1
Total in-flight flits = 24 (24 measured)
====== Peak Queue Occupancy Statistics (Absolute Max) ======
  Overall Max VC Occupancy = 1
  Overall Max Buffer Occupancy = 2
latency change    = 0.00434276
throughput change = 0.150184
Class 0:
Packet latency average = 11.0166
	minimum = 8
	maximum = 17
	95th percentile = 17.5
	99th percentile = 17.5
Network latency average = 11.0166
	minimum = 8
	maximum = 17
	95th percentile = 17.5
	99th percentile = 17.5
Slowest packet = 4035
Flit latency average = 11.0164
	minimum = 8
	maximum = 17
	95th percentile = 17.5
	99th percentile = 17.5
Slowest flit = 4014
Fragmentation average = 0
	minimum = 0
	maximum = 0
Injected packet rate average = 0.201111
	minimum = 0.191222 (at node 2)
	maximum = 0.206444 (at node 3)
Accepted packet rate average = 0.201012
	minimum = 0.190889 (at node 6)
	maximum = 0.206667 (at node 5)
Injected flit rate average = 0.201111
	minimum = 0.191222 (at node 2)
	maximum = 0.206444 (at node 3)
Accepted flit rate average= 0.201012
	minimum = 0.190889 (at node 6)
	maximum = 0.206667 (at node 5)
Injected packet length average = 1
Accepted packet length average = 1
Total in-flight flits = 18 (18 measured)
====== Peak Queue Occupancy Statistics (Absolute Max) ======
  Overall Max VC Occupancy = 1
  Overall Max Buffer Occupancy = 2
latency change    = 0.000971379
throughput change = 0.123418
Class 0:
Packet latency average = 11.0627
	minimum = 8
	maximum = 18
	95th percentile = 17.5
	99th percentile = 17.5
Network latency average = 11.0627
	minimum = 8
	maximum = 18
	95th percentile = 17.5
	99th percentile = 17.5
Slowest packet = 21163
Flit latency average = 11.0625
	minimum = 8
	maximum = 18
	95th percentile = 17.5
	99th percentile = 17.5
Slowest flit = 21163
Fragmentation average = 0
	minimum = 0
	maximum = 0
Injected packet rate average = 0.226306
	minimum = 0.21725 (at node 2)
	maximum = 0.23425 (at node 7)
Accepted packet rate average = 0.226176
	minimum = 0.217083 (at node 6)
	maximum = 0.234167 (at node 8)
Injected flit rate average = 0.226306
	minimum = 0.21725 (at node 2)
	maximum = 0.23425 (at node 7)
Accepted flit rate average= 0.226176
	minimum = 0.217083 (at node 6)
	maximum = 0.234167 (at node 8)
Injected packet length average = 1
Accepted packet length average = 1
Total in-flight flits = 24 (24 measured)
====== Peak Queue Occupancy Statistics (Absolute Max) ======
  Overall Max VC Occupancy = 1
  Overall Max Buffer Occupancy = 2
latency change    = 0.00416431
throughput change = 0.111257
Class 0:
Packet latency average = 11.1099
	minimum = 8
	maximum = 20
	95th percentile = 17.5
	99th percentile = 17.5
Network latency average = 11.1099
	minimum = 8
	maximum = 20
	95th percentile = 17.5
	99th percentile = 17.5
Slowest packet = 37648
Flit latency average = 11.1098
	minimum = 8
	maximum = 20
	95th percentile = 17.5
	99th percentile = 17.5
Slowest flit = 37648
Fragmentation average = 0
	minimum = 0
	maximum = 0
Injected packet rate average = 0.250859
	minimum = 0.243933 (at node 2)
	maximum = 0.2578 (at node 7)
Accepted packet rate average = 0.250652
	minimum = 0.243733 (at node 6)
	maximum = 0.257467 (at node 8)
Injected flit rate average = 0.250859
	minimum = 0.243933 (at node 2)
	maximum = 0.2578 (at node 7)
Accepted flit rate average= 0.250652
	minimum = 0.243733 (at node 6)
	maximum = 0.257467 (at node 8)
Injected packet length average = 1
Accepted packet length average = 1
Total in-flight flits = 38 (38 measured)
====== Peak Queue Occupancy Statistics (Absolute Max) ======
  Overall Max VC Occupancy = 1
  Overall Max Buffer Occupancy = 2
latency change    = 0.0042554
throughput change = 0.0976491
Class 0:
Packet latency average = 11.1775
	minimum = 8
	maximum = 22
	95th percentile = 17.5
	99th percentile = 17.5
Network latency average = 11.1775
	minimum = 8
	maximum = 22
	95th percentile = 17.5
	99th percentile = 17.5
Slowest packet = 42345
Flit latency average = 11.1774
	minimum = 8
	maximum = 22
	95th percentile = 17.5
	99th percentile = 17.5
Slowest flit = 42345
Fragmentation average = 0
	minimum = 0
	maximum = 0
Injected packet rate average = 0.275938
	minimum = 0.269 (at node 2)
	maximum = 0.282056 (at node 7)
Accepted packet rate average = 0.275691
	minimum = 0.268556 (at node 6)
	maximum = 0.281944 (at node 8)
Injected flit rate average = 0.275938
	minimum = 0.269 (at node 2)
	maximum = 0.282056 (at node 7)
Accepted flit rate average= 0.275691
	minimum = 0.268556 (at node 6)
	maximum = 0.281944 (at node 8)
Injected packet length average = 1
Accepted packet length average = 1
Total in-flight flits = 50 (50 measured)
====== Peak Queue Occupancy Statistics (Absolute Max) ======
  Overall Max VC Occupancy = 1
  Overall Max Buffer Occupancy = 2
latency change    = 0.00604296
throughput change = 0.0908244
Class 0:
Packet latency average = 11.3864
	minimum = 8
	maximum = 32
	95th percentile = 17.5
	99th percentile = 18.5
Network latency average = 11.3864
	minimum = 8
	maximum = 32
	95th percentile = 17.5
	99th percentile = 18.5
Slowest packet = 55312
Flit latency average = 11.3863
	minimum = 8
	maximum = 32
	95th percentile = 17.5
	99th percentile = 18.5
Slowest flit = 55312
Fragmentation average = 0
	minimum = 0
	maximum = 0
Injected packet rate average = 0.301317
	minimum = 0.293857 (at node 2)
	maximum = 0.306905 (at node 7)
Accepted packet rate average = 0.301042
	minimum = 0.293524 (at node 6)
	maximum = 0.306714 (at node 8)
Injected flit rate average = 0.301317
	minimum = 0.293857 (at node 2)
	maximum = 0.306905 (at node 7)
Accepted flit rate average= 0.301042
	minimum = 0.293524 (at node 6)
	maximum = 0.306714 (at node 8)
Injected packet length average = 1
Accepted packet length average = 1
Total in-flight flits = 62 (62 measured)
====== Peak Queue Occupancy Statistics (Absolute Max) ======
  Overall Max VC Occupancy = 1
  Overall Max Buffer Occupancy = 2
latency change    = 0.0183507
throughput change = 0.0842106
Class 0:
Packet latency average = 12.2792
	minimum = 8
	maximum = 49
	95th percentile = 19.5
	99th percentile = 39.5
Network latency average = 12.2792
	minimum = 8
	maximum = 49
	95th percentile = 19.5
	99th percentile = 39.5
Slowest packet = 71226
Flit latency average = 12.2789
	minimum = 8
	maximum = 49
	95th percentile = 19.5
	99th percentile = 39.5
Slowest flit = 71226
Fragmentation average = 0
	minimum = 0
	maximum = 0
Injected packet rate average = 0.325671
	minimum = 0.318917 (at node 2)
	maximum = 0.330875 (at node 7)
Accepted packet rate average = 0.325338
	minimum = 0.318583 (at node 6)
	maximum = 0.330667 (at node 8)
Injected flit rate average = 0.325671
	minimum = 0.318917 (at node 2)
	maximum = 0.330875 (at node 7)
Accepted flit rate average= 0.325338
	minimum = 0.318583 (at node 6)
	maximum = 0.330667 (at node 8)
Injected packet length average = 1
Accepted packet length average = 1
Total in-flight flits = 82 (82 measured)
====== Peak Queue Occupancy Statistics (Absolute Max) ======
  Overall Max VC Occupancy = 1
  Overall Max Buffer Occupancy = 2
latency change    = 0.072703
throughput change = 0.0746781
Class 0:
Packet latency average = 17.0308
	minimum = 8
	maximum = 500
	95th percentile = 53.5
	99th percentile = 116.5
Network latency average = 16.9969
	minimum = 8
	maximum = 500
	95th percentile = 53.5
	99th percentile = 115.5
Slowest packet = 77186
Flit latency average = 16.9962
	minimum = 8
	maximum = 500
	95th percentile = 53.5
	99th percentile = 115.5
Slowest flit = 77186
Fragmentation average = 0
	minimum = 0
	maximum = 0
Injected packet rate average = 0.350893
	minimum = 0.342704 (at node 2)
	maximum = 0.355519 (at node 7)
Accepted packet rate average = 0.35023
	minimum = 0.342148 (at node 6)
	maximum = 0.355407 (at node 8)
Injected flit rate average = 0.350893
	minimum = 0.342704 (at node 2)
	maximum = 0.355519 (at node 7)
Accepted flit rate average= 0.35023
	minimum = 0.342148 (at node 6)
	maximum = 0.355407 (at node 8)
Injected packet length average = 1
Accepted packet length average = 1
Total in-flight flits = 171 (171 measured)
====== Peak Queue Occupancy Statistics (Absolute Max) ======
  Overall Max VC Occupancy = 1
  Overall Max Buffer Occupancy = 48
latency change    = 0.279003
throughput change = 0.0710746
Class 0:
Packet latency average = 20.8404
	minimum = 8
	maximum = 550
	95th percentile = 69.5
	99th percentile = 181.5
Network latency average = 20.7897
	minimum = 8
	maximum = 550
	95th percentile = 68.5
	99th percentile = 181.5
Slowest packet = 99615
Flit latency average = 20.7887
	minimum = 8
	maximum = 550
	95th percentile = 68.5
	99th percentile = 181.5
Slowest flit = 99615
Fragmentation average = 0
	minimum = 0
	maximum = 0
Injected packet rate average = 0.375448
	minimum = 0.3675 (at node 2)
	maximum = 0.3805 (at node 7)
Accepted packet rate average = 0.374759
	minimum = 0.3671 (at node 6)
	maximum = 0.380367 (at node 8)
Injected flit rate average = 0.375448
	minimum = 0.3675 (at node 2)
	maximum = 0.3805 (at node 7)
Accepted flit rate average= 0.374759
	minimum = 0.3671 (at node 6)
	maximum = 0.380367 (at node 8)
Injected packet length average = 1
Accepted packet length average = 1
Total in-flight flits = 196 (196 measured)
====== Peak Queue Occupancy Statistics (Absolute Max) ======
  Overall Max VC Occupancy = 1
  Overall Max Buffer Occupancy = 48
latency change    = 0.182799
throughput change = 0.0654522
Class 0:
Packet latency average = 23.8242
	minimum = 8
	maximum = 550
	95th percentile = 82.5
	99th percentile = 204.5
Network latency average = 23.7632
	minimum = 8
	maximum = 550
	95th percentile = 82.5
	99th percentile = 204.5
Slowest packet = 99615
Flit latency average = 23.7621
	minimum = 8
	maximum = 550
	95th percentile = 82.5
	99th percentile = 204.5
Slowest flit = 99615
Fragmentation average = 0
	minimum = 0
	maximum = 0
Injected packet rate average = 0.396158
	minimum = 0.388424 (at node 2)
	maximum = 0.401424 (at node 7)
Accepted packet rate average = 0.395418
	minimum = 0.388 (at node 6)
	maximum = 0.401273 (at node 8)
Injected flit rate average = 0.396158
	minimum = 0.388424 (at node 2)
	maximum = 0.401424 (at node 7)
Accepted flit rate average= 0.395418
	minimum = 0.388 (at node 6)
	maximum = 0.401273 (at node 8)
Injected packet length average = 1
Accepted packet length average = 1
Total in-flight flits = 230 (230 measured)
====== Peak Queue Occupancy Statistics (Absolute Max) ======
  Overall Max VC Occupancy = 1
  Overall Max Buffer Occupancy = 48
latency change    = 0.12524
throughput change = 0.0522441
Class 0:
Packet latency average = 26.0202
	minimum = 8
	maximum = 617
	95th percentile = 93.5
	99th percentile = 211.5
Network latency average = 25.9604
	minimum = 8
	maximum = 617
	95th percentile = 93.5
	99th percentile = 211.5
Slowest packet = 121673
Flit latency average = 25.9593
	minimum = 8
	maximum = 617
	95th percentile = 93.5
	99th percentile = 211.5
Slowest flit = 121673
Fragmentation average = 0
	minimum = 0
	maximum = 0
Injected packet rate average = 0.413241
	minimum = 0.406694 (at node 2)
	maximum = 0.418889 (at node 7)
Accepted packet rate average = 0.412546
	minimum = 0.406278 (at node 6)
	maximum = 0.418722 (at node 8)
Injected flit rate average = 0.413241
	minimum = 0.406694 (at node 2)
	maximum = 0.418889 (at node 7)
Accepted flit rate average= 0.412546
	minimum = 0.406278 (at node 6)
	maximum = 0.418722 (at node 8)
Injected packet length average = 1
Accepted packet length average = 1
Total in-flight flits = 235 (235 measured)
====== Peak Queue Occupancy Statistics (Absolute Max) ======
  Overall Max VC Occupancy = 1
  Overall Max Buffer Occupancy = 48
latency change    = 0.0843959
throughput change = 0.0415197
Class 0:
Packet latency average = 27.4692
	minimum = 8
	maximum = 617
	95th percentile = 99.5
	99th percentile = 214.5
Network latency average = 27.3994
	minimum = 8
	maximum = 617
	95th percentile = 99.5
	99th percentile = 214.5
Slowest packet = 121673
Flit latency average = 27.3983
	minimum = 8
	maximum = 617
	95th percentile = 99.5
	99th percentile = 214.5
Slowest flit = 121673
Fragmentation average = 0
	minimum = 0
	maximum = 0
Injected packet rate average = 0.427832
	minimum = 0.42159 (at node 2)
	maximum = 0.43259 (at node 7)
Accepted packet rate average = 0.42716
	minimum = 0.421333 (at node 6)
	maximum = 0.432513 (at node 8)
Injected flit rate average = 0.427832
	minimum = 0.42159 (at node 2)
	maximum = 0.43259 (at node 7)
Accepted flit rate average= 0.42716
	minimum = 0.421333 (at node 6)
	maximum = 0.432513 (at node 8)
Injected packet length average = 1
Accepted packet length average = 1
Total in-flight flits = 246 (246 measured)
====== Peak Queue Occupancy Statistics (Absolute Max) ======
  Overall Max VC Occupancy = 1
  Overall Max Buffer Occupancy = 48
latency change    = 0.0527497
throughput change = 0.0342103
Class 0:
Packet latency average = 28.7622
	minimum = 8
	maximum = 617
	95th percentile = 105.5
	99th percentile = 219.5
Network latency average = 28.6788
	minimum = 8
	maximum = 617
	95th percentile = 104.5
	99th percentile = 219.5
Slowest packet = 121673
Flit latency average = 28.6777
	minimum = 8
	maximum = 617
	95th percentile = 104.5
	99th percentile = 219.5
Slowest flit = 121673
Fragmentation average = 0
	minimum = 0
	maximum = 0
Injected packet rate average = 0.440106
	minimum = 0.435167 (at node 2)
	maximum = 0.444357 (at node 7)
Accepted packet rate average = 0.439582
	minimum = 0.434738 (at node 6)
	maximum = 0.444238 (at node 8)
Injected flit rate average = 0.440106
	minimum = 0.435167 (at node 2)
	maximum = 0.444357 (at node 7)
Accepted flit rate average= 0.439582
	minimum = 0.434738 (at node 6)
	maximum = 0.444238 (at node 8)
Injected packet length average = 1
Accepted packet length average = 1
Total in-flight flits = 208 (208 measured)
====== Peak Queue Occupancy Statistics (Absolute Max) ======
  Overall Max VC Occupancy = 1
  Overall Max Buffer Occupancy = 48
latency change    = 0.0449556
throughput change = 0.0282597
Class 0:
Packet latency average = 29.8624
	minimum = 8
	maximum = 617
	95th percentile = 109.5
	99th percentile = 223.5
Network latency average = 29.768
	minimum = 8
	maximum = 617
	95th percentile = 109.5
	99th percentile = 223.5
Slowest packet = 121673
Flit latency average = 29.7669
	minimum = 8
	maximum = 617
	95th percentile = 109.5
	99th percentile = 223.5
Slowest flit = 121673
Fragmentation average = 0
	minimum = 0
	maximum = 0
Injected packet rate average = 0.450751
	minimum = 0.445533 (at node 2)
	maximum = 0.454822 (at node 7)
Accepted packet rate average = 0.450205
	minimum = 0.445222 (at node 6)
	maximum = 0.454733 (at node 8)
Injected flit rate average = 0.450751
	minimum = 0.445533 (at node 2)
	maximum = 0.454822 (at node 7)
Accepted flit rate average= 0.450205
	minimum = 0.445222 (at node 6)
	maximum = 0.454733 (at node 8)
Injected packet length average = 1
Accepted packet length average = 1
Total in-flight flits = 231 (231 measured)
====== Peak Queue Occupancy Statistics (Absolute Max) ======
  Overall Max VC Occupancy = 1
  Overall Max Buffer Occupancy = 48
latency change    = 0.0368432
throughput change = 0.0235958
Class 0:
Packet latency average = 30.7634
	minimum = 8
	maximum = 617
	95th percentile = 112.5
	99th percentile = 227.5
Network latency average = 30.6622
	minimum = 8
	maximum = 617
	95th percentile = 112.5
	99th percentile = 227.5
Slowest packet = 121673
Flit latency average = 30.6612
	minimum = 8
	maximum = 617
	95th percentile = 112.5
	99th percentile = 227.5
Slowest flit = 121673
Fragmentation average = 0
	minimum = 0
	maximum = 0
Injected packet rate average = 0.460106
	minimum = 0.454667 (at node 2)
	maximum = 0.4645 (at node 7)
Accepted packet rate average = 0.459699
	minimum = 0.454354 (at node 6)
	maximum = 0.464417 (at node 8)
Injected flit rate average = 0.460106
	minimum = 0.454667 (at node 2)
	maximum = 0.4645 (at node 7)
Accepted flit rate average= 0.459699
	minimum = 0.454354 (at node 6)
	maximum = 0.464417 (at node 8)
Injected packet length average = 1
Accepted packet length average = 1
Total in-flight flits = 186 (186 measured)
====== Peak Queue Occupancy Statistics (Absolute Max) ======
  Overall Max VC Occupancy = 1
  Overall Max Buffer Occupancy = 48
latency change    = 0.0292876
throughput change = 0.0206529
Draining all recorded packets ...
Draining remaining packets ...
Time taken is 54301 cycles
====== Overall Traffic Statistics ======
====== Traffic class 0 ======
Packet latency average = 30.8116 (1 samples)
	minimum = 8 (1 samples)
	maximum = 617 (1 samples)
Network latency average = 30.7105 (1 samples)
	minimum = 8 (1 samples)
	maximum = 617 (1 samples)
Flit latency average = 30.7215 (1 samples)
	minimum = 8 (1 samples)
	maximum = 617 (1 samples)
Fragmentation average = 0 (1 samples)
	minimum = 0 (1 samples)
	maximum = 0 (1 samples)
Injected packet rate average = 0.460106 (1 samples)
	minimum = 0.454667 (1 samples)
	maximum = 0.4645 (1 samples)
Accepted packet rate average = 0.459699 (1 samples)
	minimum = 0.454354 (1 samples)
	maximum = 0.464417 (1 samples)
Injected flit rate average = 0.460106 (1 samples)
	minimum = 0.454667 (1 samples)
	maximum = 0.4645 (1 samples)
Accepted flit rate average = 0.459699 (1 samples)
	minimum = 0.454354 (1 samples)
	maximum = 0.464417 (1 samples)
Injected packet size average = 1 (1 samples)
Accepted packet size average = 1 (1 samples)
Hops average = 3.07944 (1 samples)
Total run time 9.96029
====== Hybrid Routing Split Statistics ======
XY packets = 172394
Racke packets = 31537
XY fraction = 0.845355
Racke fraction = 0.154645
Flow (0 -> 4) alpha=0.303425 xy_packets=17063 racke_packets=5472 racke_fraction=0.242822
Flow (1 -> 7) alpha=0.310316 xy_packets=17173 racke_packets=5336 racke_fraction=0.237061
Flow (2 -> 6) alpha=0.30138 xy_packets=16223 racke_packets=6171 racke_fraction=0.275565
Flow (3 -> 5) alpha=0 xy_packets=22836 racke_packets=0 racke_fraction=0
Flow (4 -> 1) alpha=0.300478 xy_packets=17313 racke_packets=5466 racke_fraction=0.239958
Flow (5 -> 2) alpha=0 xy_packets=22758 racke_packets=0 racke_fraction=0
Flow (6 -> 0) alpha=0.213946 xy_packets=18054 racke_packets=4556 racke_fraction=0.201504
Flow (7 -> 8) alpha=0 xy_packets=22881 racke_packets=0 racke_fraction=0
Flow (8 -> 3) alpha=0.203231 xy_packets=18093 racke_packets=4536 racke_fraction=0.200451
====== Hybrid Routing Window Statistics ======
Window [0,3000) xy_packets=1367 racke_packets=0 xy_fraction=1
Window [3000,6000) xy_packets=2655 racke_packets=0 xy_fraction=1
Window [6000,9000) xy_packets=4047 racke_packets=0 xy_fraction=1
Window [9000,12000) xy_packets=5482 racke_packets=0 xy_fraction=1
Window [12000,15000) xy_packets=6761 racke_packets=0 xy_fraction=1
Window [15000,18000) xy_packets=8151 racke_packets=0 xy_fraction=1
Window [18000,21000) xy_packets=9425 racke_packets=0 xy_fraction=1
Window [21000,24000) xy_packets=10836 racke_packets=0 xy_fraction=1
Window [24000,27000) xy_packets=12247 racke_packets=0 xy_fraction=1
Window [27000,30000) xy_packets=13396 racke_packets=0 xy_fraction=1
Window [30000,33000) xy_packets=12783 racke_packets=2139 xy_fraction=0.856655
Window [33000,36000) xy_packets=12079 racke_packets=4025 xy_fraction=0.750062
Window [36000,39000) xy_packets=12041 racke_packets=4247 xy_fraction=0.739256
Window [39000,42000) xy_packets=11927 racke_packets=4304 xy_fraction=0.734828
Window [42000,45000) xy_packets=12164 racke_packets=4115 xy_fraction=0.74722
Window [45000,48000) xy_packets=12018 racke_packets=4173 xy_fraction=0.742264
Window [48000,51000) xy_packets=12146 racke_packets=4048 xy_fraction=0.750031
Window [51000,54000) xy_packets=12000 racke_packets=4212 xy_fraction=0.740192
Window [54000,57000) xy_packets=869 racke_packets=274 xy_fraction=0.76028

