BEGIN Configuration File: D:\noc_huawei\noc\booksim2-noc_speedup_study\booksim2-noc_speedup_study\tests\data\results\p3_ramp_to_0p6_hold_current_scheme\tmp_configs\linear_scale_dim_order_s2202.config
num_vcs     = 48;
vc_buf_size = 16;
wait_for_tail_credit = 1;

vc_allocator = islip;
sw_allocator = islip;
alloc_iters  = 16;

credit_delay   = 2;
routing_delay  = 0;
vc_alloc_delay = 1;
sw_alloc_delay = 1;
st_final_delay = 1;

input_speedup     = 1;
output_speedup    = 1;
internal_speedup  = 2.0;

sim_type = latency;
latency_thres  = 100000.0;
sim_count      = 1;
queue_sample_period_cycles = 0;

topology = mesh;
k  = 3;
n  = 2;

hybrid_transition_mode = linear_prob;
hybrid_xy_low_threshold = 0.35;
hybrid_racke_high_threshold = 0.65;
hybrid_buffer_soft_threshold = 0.50;
hybrid_buffer_hard_threshold = 0.85;
hybrid_buffer_release_threshold = 0.35;
hybrid_rate_soft_threshold = 0.55;
hybrid_rate_hard_threshold = 0.90;
hybrid_rate_weight = 0.25;
hybrid_congestion_alpha = 0.25;
hybrid_racke_increase_step = 0.25;
hybrid_racke_decrease_step = 0.10;
hybrid_epoch_cycles = 200;
hybrid_hold_cycles = 600;
hybrid_enable_midflight_override = 1;
hybrid_feedback_delay_per_hop = 1;
hybrid_flow_increase_step = 0.20;
hybrid_flow_decrease_step = 0.08;
hybrid_flow_hard_threshold = 0.95;

packet_size = 1;


ordered_injection_coefficients = {0.1666666667,0.3333333333,0.5};
ordered_injection_phase_cycles = {1000,1000,1000};
ordered_injection_source_order = {4,0,7,2,8,1,5,3,6};
ordered_injection_flow_peak_rate = 0.60;
warmup_periods = 2;
custom_perm_array = {4,7,6,5,1,2,0,8,3};
injection_process = scheduled;
injection_rate = 0.6;
scheduled_default_phase_cycles = 3000;
perm_seed = 2202;
hybrid_flow_hotspot_alpha = 0.85;
hybrid_stats_window_cycles = 3000;
hybrid_flow_hotspot_threshold = 0.8;
sample_period = 3000;
scheduled_injection_rates = {0.05,0.1,0.15,0.2,0.25,0.3,0.35,0.4,0.45,0.5,0.55,0.6,0.6,0.6,0.6,0.6};
traffic = custom_perm;
routing_function = dim_order;
scheduled_phase_cycles = {3000,3000,3000,3000,3000,3000,3000,3000,3000,3000,3000,3000,3000,3000,3000,3000};
seed = 2202;
max_samples = 24;

END Configuration File: D:\noc_huawei\noc\booksim2-noc_speedup_study\booksim2-noc_speedup_study\tests\data\results\p3_ramp_to_0p6_hold_current_scheme\tmp_configs\linear_scale_dim_order_s2202.config
Class 0:
Packet latency average = 11.0132
	minimum = 8
	maximum = 17
	95th percentile = 17.5
	99th percentile = 17.5
Network latency average = 11.0132
	minimum = 8
	maximum = 17
	95th percentile = 17.5
	99th percentile = 17.5
Slowest packet = 1
Flit latency average = 11.0132
	minimum = 8
	maximum = 17
	95th percentile = 17.5
	99th percentile = 17.5
Slowest flit = 1
Fragmentation average = 0
	minimum = 0
	maximum = 0
Injected packet rate average = 0.0506296
	minimum = 0.046 (at node 2)
	maximum = 0.0553333 (at node 8)
Accepted packet rate average = 0.0505185
	minimum = 0.0456667 (at node 6)
	maximum = 0.0553333 (at node 3)
Injected flit rate average = 0.0506296
	minimum = 0.046 (at node 2)
	maximum = 0.0553333 (at node 8)
Accepted flit rate average= 0.0505185
	minimum = 0.0456667 (at node 6)
	maximum = 0.0553333 (at node 3)
Injected packet length average = 1
Accepted packet length average = 1
Total in-flight flits = 3 (0 measured)
====== Peak Queue Occupancy Statistics (Absolute Max) ======
  Overall Max VC Occupancy = 1
  Overall Max Buffer Occupancy = 2
latency change    = 1
throughput change = 1
Class 0:
Packet latency average = 10.985
	minimum = 8
	maximum = 17
	95th percentile = 17.5
	99th percentile = 17.5
Network latency average = 10.985
	minimum = 8
	maximum = 17
	95th percentile = 17.5
	99th percentile = 17.5
Slowest packet = 1
Flit latency average = 10.985
	minimum = 8
	maximum = 17
	95th percentile = 17.5
	99th percentile = 17.5
Slowest flit = 1
Fragmentation average = 0
	minimum = 0
	maximum = 0
Injected packet rate average = 0.0744815
	minimum = 0.069 (at node 6)
	maximum = 0.0775 (at node 5)
Accepted packet rate average = 0.0742963
	minimum = 0.069 (at node 0)
	maximum = 0.077 (at node 2)
Injected flit rate average = 0.0744815
	minimum = 0.069 (at node 6)
	maximum = 0.0775 (at node 5)
Accepted flit rate average= 0.0742963
	minimum = 0.069 (at node 0)
	maximum = 0.077 (at node 2)
Injected packet length average = 1
Accepted packet length average = 1
Total in-flight flits = 10 (0 measured)
====== Peak Queue Occupancy Statistics (Absolute Max) ======
  Overall Max VC Occupancy = 1
  Overall Max Buffer Occupancy = 2
latency change    = 0.00256272
throughput change = 0.32004
Warmed up ...Time used is 6000 cycles
Class 0:
Packet latency average = 10.9581
	minimum = 8
	maximum = 17
	95th percentile = 17.5
	99th percentile = 17.5
Network latency average = 10.9581
	minimum = 8
	maximum = 17
	95th percentile = 17.5
	99th percentile = 17.5
Slowest packet = 4035
Flit latency average = 10.9575
	minimum = 8
	maximum = 17
	95th percentile = 17.5
	99th percentile = 17.5
Slowest flit = 4014
Fragmentation average = 0
	minimum = 0
	maximum = 0
Injected packet rate average = 0.149889
	minimum = 0.137667 (at node 2)
	maximum = 0.160333 (at node 5)
Accepted packet rate average = 0.149741
	minimum = 0.137333 (at node 6)
	maximum = 0.161 (at node 2)
Injected flit rate average = 0.149889
	minimum = 0.137667 (at node 2)
	maximum = 0.160333 (at node 5)
Accepted flit rate average= 0.149741
	minimum = 0.137333 (at node 6)
	maximum = 0.161 (at node 2)
Injected packet length average = 1
Accepted packet length average = 1
Total in-flight flits = 14 (14 measured)
====== Peak Queue Occupancy Statistics (Absolute Max) ======
  Overall Max VC Occupancy = 1
  Overall Max Buffer Occupancy = 2
latency change    = 0.00245929
throughput change = 0.503834
Class 0:
Packet latency average = 11.0059
	minimum = 8
	maximum = 17
	95th percentile = 17.5
	99th percentile = 17.5
Network latency average = 11.0059
	minimum = 8
	maximum = 17
	95th percentile = 17.5
	99th percentile = 17.5
Slowest packet = 4035
Flit latency average = 11.0056
	minimum = 8
	maximum = 17
	95th percentile = 17.5
	99th percentile = 17.5
Slowest flit = 4014
Fragmentation average = 0
	minimum = 0
	maximum = 0
Injected packet rate average = 0.176463
	minimum = 0.164333 (at node 2)
	maximum = 0.183667 (at node 6)
Accepted packet rate average = 0.176204
	minimum = 0.1635 (at node 6)
	maximum = 0.183333 (at node 0)
Injected flit rate average = 0.176463
	minimum = 0.164333 (at node 2)
	maximum = 0.183667 (at node 6)
Accepted flit rate average= 0.176204
	minimum = 0.1635 (at node 6)
	maximum = 0.183333 (at node 0)
Injected packet length average = 1
Accepted packet length average = 1
Total in-flight flits = 24 (24 measured)
====== Peak Queue Occupancy Statistics (Absolute Max) ======
  Overall Max VC Occupancy = 1
  Overall Max Buffer Occupancy = 2
latency change    = 0.00434276
throughput change = 0.150184
Class 0:
Packet latency average = 11.0166
	minimum = 8
	maximum = 17
	95th percentile = 17.5
	99th percentile = 17.5
Network latency average = 11.0166
	minimum = 8
	maximum = 17
	95th percentile = 17.5
	99th percentile = 17.5
Slowest packet = 4035
Flit latency average = 11.0164
	minimum = 8
	maximum = 17
	95th percentile = 17.5
	99th percentile = 17.5
Slowest flit = 4014
Fragmentation average = 0
	minimum = 0
	maximum = 0
Injected packet rate average = 0.201111
	minimum = 0.191222 (at node 2)
	maximum = 0.206444 (at node 3)
Accepted packet rate average = 0.201012
	minimum = 0.190889 (at node 6)
	maximum = 0.206667 (at node 5)
Injected flit rate average = 0.201111
	minimum = 0.191222 (at node 2)
	maximum = 0.206444 (at node 3)
Accepted flit rate average= 0.201012
	minimum = 0.190889 (at node 6)
	maximum = 0.206667 (at node 5)
Injected packet length average = 1
Accepted packet length average = 1
Total in-flight flits = 18 (18 measured)
====== Peak Queue Occupancy Statistics (Absolute Max) ======
  Overall Max VC Occupancy = 1
  Overall Max Buffer Occupancy = 2
latency change    = 0.000971379
throughput change = 0.123418
Class 0:
Packet latency average = 11.0627
	minimum = 8
	maximum = 18
	95th percentile = 17.5
	99th percentile = 17.5
Network latency average = 11.0627
	minimum = 8
	maximum = 18
	95th percentile = 17.5
	99th percentile = 17.5
Slowest packet = 21163
Flit latency average = 11.0625
	minimum = 8
	maximum = 18
	95th percentile = 17.5
	99th percentile = 17.5
Slowest flit = 21163
Fragmentation average = 0
	minimum = 0
	maximum = 0
Injected packet rate average = 0.226306
	minimum = 0.21725 (at node 2)
	maximum = 0.23425 (at node 7)
Accepted packet rate average = 0.226176
	minimum = 0.217083 (at node 6)
	maximum = 0.234167 (at node 8)
Injected flit rate average = 0.226306
	minimum = 0.21725 (at node 2)
	maximum = 0.23425 (at node 7)
Accepted flit rate average= 0.226176
	minimum = 0.217083 (at node 6)
	maximum = 0.234167 (at node 8)
Injected packet length average = 1
Accepted packet length average = 1
Total in-flight flits = 24 (24 measured)
====== Peak Queue Occupancy Statistics (Absolute Max) ======
  Overall Max VC Occupancy = 1
  Overall Max Buffer Occupancy = 2
latency change    = 0.00416431
throughput change = 0.111257
Class 0:
Packet latency average = 11.1099
	minimum = 8
	maximum = 20
	95th percentile = 17.5
	99th percentile = 17.5
Network latency average = 11.1099
	minimum = 8
	maximum = 20
	95th percentile = 17.5
	99th percentile = 17.5
Slowest packet = 37648
Flit latency average = 11.1098
	minimum = 8
	maximum = 20
	95th percentile = 17.5
	99th percentile = 17.5
Slowest flit = 37648
Fragmentation average = 0
	minimum = 0
	maximum = 0
Injected packet rate average = 0.250859
	minimum = 0.243933 (at node 2)
	maximum = 0.2578 (at node 7)
Accepted packet rate average = 0.250652
	minimum = 0.243733 (at node 6)
	maximum = 0.257467 (at node 8)
Injected flit rate average = 0.250859
	minimum = 0.243933 (at node 2)
	maximum = 0.2578 (at node 7)
Accepted flit rate average= 0.250652
	minimum = 0.243733 (at node 6)
	maximum = 0.257467 (at node 8)
Injected packet length average = 1
Accepted packet length average = 1
Total in-flight flits = 38 (38 measured)
====== Peak Queue Occupancy Statistics (Absolute Max) ======
  Overall Max VC Occupancy = 1
  Overall Max Buffer Occupancy = 2
latency change    = 0.0042554
throughput change = 0.0976491
Class 0:
Packet latency average = 11.1775
	minimum = 8
	maximum = 22
	95th percentile = 17.5
	99th percentile = 17.5
Network latency average = 11.1775
	minimum = 8
	maximum = 22
	95th percentile = 17.5
	99th percentile = 17.5
Slowest packet = 42345
Flit latency average = 11.1774
	minimum = 8
	maximum = 22
	95th percentile = 17.5
	99th percentile = 17.5
Slowest flit = 42345
Fragmentation average = 0
	minimum = 0
	maximum = 0
Injected packet rate average = 0.275938
	minimum = 0.269 (at node 2)
	maximum = 0.282056 (at node 7)
Accepted packet rate average = 0.275691
	minimum = 0.268556 (at node 6)
	maximum = 0.281944 (at node 8)
Injected flit rate average = 0.275938
	minimum = 0.269 (at node 2)
	maximum = 0.282056 (at node 7)
Accepted flit rate average= 0.275691
	minimum = 0.268556 (at node 6)
	maximum = 0.281944 (at node 8)
Injected packet length average = 1
Accepted packet length average = 1
Total in-flight flits = 50 (50 measured)
====== Peak Queue Occupancy Statistics (Absolute Max) ======
  Overall Max VC Occupancy = 1
  Overall Max Buffer Occupancy = 2
latency change    = 0.00604296
throughput change = 0.0908244
Class 0:
Packet latency average = 11.3864
	minimum = 8
	maximum = 32
	95th percentile = 17.5
	99th percentile = 18.5
Network latency average = 11.3864
	minimum = 8
	maximum = 32
	95th percentile = 17.5
	99th percentile = 18.5
Slowest packet = 55312
Flit latency average = 11.3863
	minimum = 8
	maximum = 32
	95th percentile = 17.5
	99th percentile = 18.5
Slowest flit = 55312
Fragmentation average = 0
	minimum = 0
	maximum = 0
Injected packet rate average = 0.301317
	minimum = 0.293857 (at node 2)
	maximum = 0.306905 (at node 7)
Accepted packet rate average = 0.301042
	minimum = 0.293524 (at node 6)
	maximum = 0.306714 (at node 8)
Injected flit rate average = 0.301317
	minimum = 0.293857 (at node 2)
	maximum = 0.306905 (at node 7)
Accepted flit rate average= 0.301042
	minimum = 0.293524 (at node 6)
	maximum = 0.306714 (at node 8)
Injected packet length average = 1
Accepted packet length average = 1
Total in-flight flits = 62 (62 measured)
====== Peak Queue Occupancy Statistics (Absolute Max) ======
  Overall Max VC Occupancy = 1
  Overall Max Buffer Occupancy = 2
latency change    = 0.0183507
throughput change = 0.0842106
Class 0:
Packet latency average = 12.2792
	minimum = 8
	maximum = 49
	95th percentile = 19.5
	99th percentile = 39.5
Network latency average = 12.2792
	minimum = 8
	maximum = 49
	95th percentile = 19.5
	99th percentile = 39.5
Slowest packet = 71226
Flit latency average = 12.2789
	minimum = 8
	maximum = 49
	95th percentile = 19.5
	99th percentile = 39.5
Slowest flit = 71226
Fragmentation average = 0
	minimum = 0
	maximum = 0
Injected packet rate average = 0.325671
	minimum = 0.318917 (at node 2)
	maximum = 0.330875 (at node 7)
Accepted packet rate average = 0.325338
	minimum = 0.318583 (at node 6)
	maximum = 0.330667 (at node 8)
Injected flit rate average = 0.325671
	minimum = 0.318917 (at node 2)
	maximum = 0.330875 (at node 7)
Accepted flit rate average= 0.325338
	minimum = 0.318583 (at node 6)
	maximum = 0.330667 (at node 8)
Injected packet length average = 1
Accepted packet length average = 1
Total in-flight flits = 82 (82 measured)
====== Peak Queue Occupancy Statistics (Absolute Max) ======
  Overall Max VC Occupancy = 1
  Overall Max Buffer Occupancy = 2
latency change    = 0.072703
throughput change = 0.0746781
Class 0:
Packet latency average = 22.7014
	minimum = 8
	maximum = 1394
	95th percentile = 68.5
	99th percentile = 284.5
Network latency average = 19.8615
	minimum = 8
	maximum = 1394
	95th percentile = 55.5
	99th percentile = 193.5
Slowest packet = 82205
Flit latency average = 19.8604
	minimum = 8
	maximum = 1394
	95th percentile = 55.5
	99th percentile = 193.5
Slowest flit = 82205
Fragmentation average = 0
	minimum = 0
	maximum = 0
Injected packet rate average = 0.349321
	minimum = 0.34337 (at node 8)
	maximum = 0.353778 (at node 7)
Accepted packet rate average = 0.347708
	minimum = 0.337519 (at node 3)
	maximum = 0.353704 (at node 8)
Injected flit rate average = 0.349321
	minimum = 0.34337 (at node 8)
	maximum = 0.353778 (at node 7)
Accepted flit rate average= 0.347708
	minimum = 0.337519 (at node 3)
	maximum = 0.353704 (at node 8)
Injected packet length average = 1
Accepted packet length average = 1
Total in-flight flits = 403 (403 measured)
====== Peak Queue Occupancy Statistics (Absolute Max) ======
  Overall Max VC Occupancy = 1
  Overall Max Buffer Occupancy = 48
latency change    = 0.459101
throughput change = 0.0643352
Class 0:
Packet latency average = 52.6762
	minimum = 8
	maximum = 2764
	95th percentile = 348.5
	99th percentile = 909.5
Network latency average = 30.2973
	minimum = 8
	maximum = 2631
	95th percentile = 95.5
	99th percentile = 394.5
Slowest packet = 85095
Flit latency average = 30.2953
	minimum = 8
	maximum = 2631
	95th percentile = 95.5
	99th percentile = 394.5
Slowest flit = 89644
Fragmentation average = 0
	minimum = 0
	maximum = 0
Injected packet rate average = 0.3705
	minimum = 0.3541 (at node 0)
	maximum = 0.380567 (at node 7)
Accepted packet rate average = 0.368837
	minimum = 0.350067 (at node 4)
	maximum = 0.380467 (at node 8)
Injected flit rate average = 0.3705
	minimum = 0.3541 (at node 0)
	maximum = 0.380567 (at node 7)
Accepted flit rate average= 0.368837
	minimum = 0.350067 (at node 4)
	maximum = 0.380467 (at node 8)
Injected packet length average = 1
Accepted packet length average = 1
Total in-flight flits = 461 (461 measured)
====== Peak Queue Occupancy Statistics (Absolute Max) ======
  Overall Max VC Occupancy = 1
  Overall Max Buffer Occupancy = 48
latency change    = 0.569039
throughput change = 0.0572861
Class 0:
Packet latency average = 99.8031
	minimum = 8
	maximum = 3176
	95th percentile = 805.5
	99th percentile = 999.5
Network latency average = 38.2423
	minimum = 8
	maximum = 2957
	95th percentile = 137.5
	99th percentile = 488.5
Slowest packet = 92847
Flit latency average = 38.2399
	minimum = 8
	maximum = 2957
	95th percentile = 137.5
	99th percentile = 488.5
Slowest flit = 92847
Fragmentation average = 0
	minimum = 0
	maximum = 0
Injected packet rate average = 0.387162
	minimum = 0.366455 (at node 0)
	maximum = 0.400394 (at node 7)
Accepted packet rate average = 0.385667
	minimum = 0.363485 (at node 4)
	maximum = 0.400273 (at node 8)
Injected flit rate average = 0.387162
	minimum = 0.366455 (at node 0)
	maximum = 0.400394 (at node 7)
Accepted flit rate average= 0.385667
	minimum = 0.363485 (at node 4)
	maximum = 0.400273 (at node 8)
Injected packet length average = 1
Accepted packet length average = 1
Total in-flight flits = 456 (456 measured)
====== Peak Queue Occupancy Statistics (Absolute Max) ======
  Overall Max VC Occupancy = 1
  Overall Max Buffer Occupancy = 48
latency change    = 0.472198
throughput change = 0.0436378
Class 0:
Packet latency average = 159.575
	minimum = 8
	maximum = 3903
	95th percentile = 999.5
	99th percentile = 999.5
Network latency average = 44.2939
	minimum = 8
	maximum = 2957
	95th percentile = 174.5
	99th percentile = 562.5
Slowest packet = 92847
Flit latency average = 44.2913
	minimum = 8
	maximum = 2957
	95th percentile = 174.5
	99th percentile = 562.5
Slowest flit = 92847
Fragmentation average = 0
	minimum = 0
	maximum = 0
Injected packet rate average = 0.401049
	minimum = 0.383306 (at node 1)
	maximum = 0.415944 (at node 3)
Accepted packet rate average = 0.399679
	minimum = 0.379083 (at node 3)
	maximum = 0.415778 (at node 5)
Injected flit rate average = 0.401049
	minimum = 0.383306 (at node 1)
	maximum = 0.415944 (at node 3)
Accepted flit rate average= 0.399679
	minimum = 0.379083 (at node 3)
	maximum = 0.415778 (at node 5)
Injected packet length average = 1
Accepted packet length average = 1
Total in-flight flits = 458 (458 measured)
====== Peak Queue Occupancy Statistics (Absolute Max) ======
  Overall Max VC Occupancy = 1
  Overall Max Buffer Occupancy = 48
latency change    = 0.374568
throughput change = 0.035059
Class 0:
Packet latency average = 227.873
	minimum = 8
	maximum = 3956
	95th percentile = 999.5
	99th percentile = 999.5
Network latency average = 49.2117
	minimum = 8
	maximum = 2957
	95th percentile = 204.5
	99th percentile = 619.5
Slowest packet = 92847
Flit latency average = 49.209
	minimum = 8
	maximum = 2957
	95th percentile = 204.5
	99th percentile = 619.5
Slowest flit = 92847
Fragmentation average = 0
	minimum = 0
	maximum = 0
Injected packet rate average = 0.412821
	minimum = 0.387103 (at node 0)
	maximum = 0.430256 (at node 3)
Accepted packet rate average = 0.411573
	minimum = 0.384077 (at node 4)
	maximum = 0.430154 (at node 5)
Injected flit rate average = 0.412821
	minimum = 0.387103 (at node 0)
	maximum = 0.430256 (at node 3)
Accepted flit rate average= 0.411573
	minimum = 0.384077 (at node 4)
	maximum = 0.430154 (at node 5)
Injected packet length average = 1
Accepted packet length average = 1
Total in-flight flits = 451 (451 measured)
====== Peak Queue Occupancy Statistics (Absolute Max) ======
  Overall Max VC Occupancy = 1
  Overall Max Buffer Occupancy = 48
latency change    = 0.299721
throughput change = 0.028898
Class 0:
Packet latency average = 303.204
	minimum = 8
	maximum = 4768
	95th percentile = 999.5
	99th percentile = 999.5
Network latency average = 53.101
	minimum = 8
	maximum = 3011
	95th percentile = 222.5
	99th percentile = 671.5
Slowest packet = 92847
Flit latency average = 53.0983
	minimum = 8
	maximum = 3011
	95th percentile = 222.5
	99th percentile = 671.5
Slowest flit = 138642
Fragmentation average = 0
	minimum = 0
	maximum = 0
Injected packet rate average = 0.422839
	minimum = 0.397071 (at node 0)
	maximum = 0.442595 (at node 7)
Accepted packet rate average = 0.421659
	minimum = 0.394643 (at node 4)
	maximum = 0.442452 (at node 8)
Injected flit rate average = 0.422839
	minimum = 0.397071 (at node 0)
	maximum = 0.442595 (at node 7)
Accepted flit rate average= 0.421659
	minimum = 0.394643 (at node 4)
	maximum = 0.442452 (at node 8)
Injected packet length average = 1
Accepted packet length average = 1
Total in-flight flits = 457 (457 measured)
====== Peak Queue Occupancy Statistics (Absolute Max) ======
  Overall Max VC Occupancy = 1
  Overall Max Buffer Occupancy = 48
latency change    = 0.248449
throughput change = 0.02392
Class 0:
Packet latency average = 383.872
	minimum = 8
	maximum = 5538
	95th percentile = 999.5
	99th percentile = 999.5
Network latency average = 56.3464
	minimum = 8
	maximum = 3011
	95th percentile = 239.5
	99th percentile = 671.5
Slowest packet = 92847
Flit latency average = 56.3438
	minimum = 8
	maximum = 3011
	95th percentile = 239.5
	99th percentile = 671.5
Slowest flit = 138642
Fragmentation average = 0
	minimum = 0
	maximum = 0
Injected packet rate average = 0.431669
	minimum = 0.406156 (at node 1)
	maximum = 0.453067 (at node 7)
Accepted packet rate average = 0.430556
	minimum = 0.404089 (at node 3)
	maximum = 0.452933 (at node 8)
Injected flit rate average = 0.431669
	minimum = 0.406156 (at node 1)
	maximum = 0.453067 (at node 7)
Accepted flit rate average= 0.430556
	minimum = 0.404089 (at node 3)
	maximum = 0.452933 (at node 8)
Injected packet length average = 1
Accepted packet length average = 1
Total in-flight flits = 462 (462 measured)
====== Peak Queue Occupancy Statistics (Absolute Max) ======
  Overall Max VC Occupancy = 1
  Overall Max Buffer Occupancy = 48
latency change    = 0.210144
throughput change = 0.0206636
Class 0:
Packet latency average = 468.144
	minimum = 8
	maximum = 5642
	95th percentile = 999.5
	99th percentile = 999.5
Network latency average = 59.1459
	minimum = 8
	maximum = 3011
	95th percentile = 252.5
	99th percentile = 700.5
Slowest packet = 92847
Flit latency average = 59.1433
	minimum = 8
	maximum = 3011
	95th percentile = 252.5
	99th percentile = 700.5
Slowest flit = 138642
Fragmentation average = 0
	minimum = 0
	maximum = 0
Injected packet rate average = 0.439292
	minimum = 0.407875 (at node 0)
	maximum = 0.462104 (at node 3)
Accepted packet rate average = 0.438255
	minimum = 0.405354 (at node 4)
	maximum = 0.462021 (at node 5)
Injected flit rate average = 0.439292
	minimum = 0.407875 (at node 0)
	maximum = 0.462104 (at node 3)
Accepted flit rate average= 0.438255
	minimum = 0.405354 (at node 4)
	maximum = 0.462021 (at node 5)
Injected packet length average = 1
Accepted packet length average = 1
Total in-flight flits = 458 (458 measured)
====== Peak Queue Occupancy Statistics (Absolute Max) ======
  Overall Max VC Occupancy = 1
  Overall Max Buffer Occupancy = 48
latency change    = 0.180013
throughput change = 0.0175676
Class 0:
Packet latency average = 555.177
	minimum = 8
	maximum = 6384
	95th percentile = 999.5
	99th percentile = 999.5
Network latency average = 61.4654
	minimum = 8
	maximum = 3011
	95th percentile = 262.5
	99th percentile = 740.5
Slowest packet = 92847
Flit latency average = 61.4629
	minimum = 8
	maximum = 3011
	95th percentile = 262.5
	99th percentile = 740.5
Slowest flit = 138642
Fragmentation average = 0
	minimum = 0
	maximum = 0
Injected packet rate average = 0.445985
	minimum = 0.416412 (at node 0)
	maximum = 0.470412 (at node 3)
Accepted packet rate average = 0.445017
	minimum = 0.414098 (at node 3)
	maximum = 0.470353 (at node 5)
Injected flit rate average = 0.445985
	minimum = 0.416412 (at node 0)
	maximum = 0.470412 (at node 3)
Accepted flit rate average= 0.445017
	minimum = 0.414098 (at node 3)
	maximum = 0.470353 (at node 5)
Injected packet length average = 1
Accepted packet length average = 1
Total in-flight flits = 457 (457 measured)
====== Peak Queue Occupancy Statistics (Absolute Max) ======
  Overall Max VC Occupancy = 1
  Overall Max Buffer Occupancy = 48
latency change    = 0.156765
throughput change = 0.0151967
Class 0:
Packet latency average = 643.691
	minimum = 8
	maximum = 6978
	95th percentile = 999.5
	99th percentile = 999.5
Network latency average = 63.4696
	minimum = 8
	maximum = 3011
	95th percentile = 269.5
	99th percentile = 759.5
Slowest packet = 92847
Flit latency average = 63.4672
	minimum = 8
	maximum = 3011
	95th percentile = 269.5
	99th percentile = 759.5
Slowest flit = 138642
Fragmentation average = 0
	minimum = 0
	maximum = 0
Injected packet rate average = 0.452074
	minimum = 0.421833 (at node 1)
	maximum = 0.477852 (at node 3)
Accepted packet rate average = 0.451167
	minimum = 0.420667 (at node 7)
	maximum = 0.477759 (at node 5)
Injected flit rate average = 0.452074
	minimum = 0.421833 (at node 1)
	maximum = 0.477852 (at node 3)
Accepted flit rate average= 0.451167
	minimum = 0.420667 (at node 7)
	maximum = 0.477759 (at node 5)
Injected packet length average = 1
Accepted packet length average = 1
Total in-flight flits = 455 (455 measured)
====== Peak Queue Occupancy Statistics (Absolute Max) ======
  Overall Max VC Occupancy = 1
  Overall Max Buffer Occupancy = 48
latency change    = 0.13751
throughput change = 0.0136296
Class 0:
Packet latency average = 732.099
	minimum = 8
	maximum = 7173
	95th percentile = 999.5
	99th percentile = 999.5
Network latency average = 65.2635
	minimum = 8
	maximum = 3011
	95th percentile = 276.5
	99th percentile = 784.5
Slowest packet = 92847
Flit latency average = 65.2612
	minimum = 8
	maximum = 3011
	95th percentile = 276.5
	99th percentile = 784.5
Slowest flit = 138642
Fragmentation average = 0
	minimum = 0
	maximum = 0
Injected packet rate average = 0.457604
	minimum = 0.421965 (at node 0)
	maximum = 0.484789 (at node 3)
Accepted packet rate average = 0.456754
	minimum = 0.419895 (at node 4)
	maximum = 0.484737 (at node 5)
Injected flit rate average = 0.457604
	minimum = 0.421965 (at node 0)
	maximum = 0.484789 (at node 3)
Accepted flit rate average= 0.456754
	minimum = 0.419895 (at node 4)
	maximum = 0.484737 (at node 5)
Injected packet length average = 1
Accepted packet length average = 1
Total in-flight flits = 449 (449 measured)
====== Peak Queue Occupancy Statistics (Absolute Max) ======
  Overall Max VC Occupancy = 1
  Overall Max Buffer Occupancy = 48
latency change    = 0.12076
throughput change = 0.0122335
Class 0:
Packet latency average = 821.748
	minimum = 8
	maximum = 7706
	95th percentile = 999.5
	99th percentile = 999.5
Network latency average = 66.7487
	minimum = 8
	maximum = 3011
	95th percentile = 281.5
	99th percentile = 804.5
Slowest packet = 92847
Flit latency average = 66.7465
	minimum = 8
	maximum = 3011
	95th percentile = 281.5
	99th percentile = 804.5
Slowest flit = 138642
Fragmentation average = 0
	minimum = 0
	maximum = 0
Injected packet rate average = 0.462626
	minimum = 0.4296 (at node 0)
	maximum = 0.490933 (at node 3)
Accepted packet rate average = 0.461811
	minimum = 0.427033 (at node 3)
	maximum = 0.490867 (at node 5)
Injected flit rate average = 0.462626
	minimum = 0.4296 (at node 0)
	maximum = 0.490933 (at node 3)
Accepted flit rate average= 0.461811
	minimum = 0.427033 (at node 3)
	maximum = 0.490867 (at node 5)
Injected packet length average = 1
Accepted packet length average = 1
Total in-flight flits = 452 (452 measured)
====== Peak Queue Occupancy Statistics (Absolute Max) ======
  Overall Max VC Occupancy = 1
  Overall Max Buffer Occupancy = 48
latency change    = 0.109095
throughput change = 0.0109498
Class 0:
Packet latency average = 912.035
	minimum = 8
	maximum = 8451
	95th percentile = 999.5
	99th percentile = 999.5
Network latency average = 68.1264
	minimum = 8
	maximum = 3011
	95th percentile = 286.5
	99th percentile = 826.5
Slowest packet = 92847
Flit latency average = 68.1243
	minimum = 8
	maximum = 3011
	95th percentile = 286.5
	99th percentile = 826.5
Slowest flit = 138642
Fragmentation average = 0
	minimum = 0
	maximum = 0
Injected packet rate average = 0.466975
	minimum = 0.433841 (at node 0)
	maximum = 0.495762 (at node 3)
Accepted packet rate average = 0.466187
	minimum = 0.43173 (at node 4)
	maximum = 0.495698 (at node 5)
Injected flit rate average = 0.466975
	minimum = 0.433841 (at node 0)
	maximum = 0.495762 (at node 3)
Accepted flit rate average= 0.466187
	minimum = 0.43173 (at node 4)
	maximum = 0.495698 (at node 5)
Injected packet length average = 1
Accepted packet length average = 1
Total in-flight flits = 459 (459 measured)
====== Peak Queue Occupancy Statistics (Absolute Max) ======
  Overall Max VC Occupancy = 1
  Overall Max Buffer Occupancy = 48
latency change    = 0.0989952
throughput change = 0.00938644
Class 0:
Packet latency average = 1001.68
	minimum = 8
	maximum = 8553
	95th percentile = 999.5
	99th percentile = 999.5
Network latency average = 69.354
	minimum = 8
	maximum = 3011
	95th percentile = 291.5
	99th percentile = 852.5
Slowest packet = 92847
Flit latency average = 69.3519
	minimum = 8
	maximum = 3011
	95th percentile = 291.5
	99th percentile = 852.5
Slowest flit = 138642
Fragmentation average = 0
	minimum = 0
	maximum = 0
Injected packet rate average = 0.471133
	minimum = 0.432318 (at node 0)
	maximum = 0.501091 (at node 3)
Accepted packet rate average = 0.47038
	minimum = 0.430485 (at node 4)
	maximum = 0.501045 (at node 5)
Injected flit rate average = 0.471133
	minimum = 0.432318 (at node 0)
	maximum = 0.501091 (at node 3)
Accepted flit rate average= 0.47038
	minimum = 0.430485 (at node 4)
	maximum = 0.501045 (at node 5)
Injected packet length average = 1
Accepted packet length average = 1
Total in-flight flits = 457 (457 measured)
====== Peak Queue Occupancy Statistics (Absolute Max) ======
  Overall Max VC Occupancy = 1
  Overall Max Buffer Occupancy = 48
latency change    = 0.0894926
throughput change = 0.00891517
Draining all recorded packets ...
Class 0:
Remaining flits: 276139 276357 277330 277525 277763 277937 278515 278562 278727 278776 [...] (454 flits)
Measured flits: 276139 276357 277330 277525 277763 277937 278515 278562 278727 278776 [...] (423 flits)
Class 0:
Remaining flits: 282686 282914 283157 283398 283641 283884 284132 284375 284623 284861 [...] (455 flits)
Measured flits: 282686 282914 283157 283398 283641 283884 284132 284375 284623 284861 [...] (427 flits)
Class 0:
Remaining flits: 287711 287950 288190 288426 288661 288896 289132 289367 289609 289856 [...] (459 flits)
Measured flits: 287711 287950 288190 288426 288661 288896 289132 289367 289609 289856 [...] (428 flits)
Class 0:
Remaining flits: 292670 292983 293046 293053 293059 293119 293876 294002 294383 294712 [...] (453 flits)
Measured flits: 292670 292983 293046 293053 293059 293119 293876 294002 294383 294712 [...] (427 flits)
Class 0:
Remaining flits: 296915 297026 297965 298202 298454 298912 299157 299223 299580 299601 [...] (463 flits)
Measured flits: 296915 297026 297965 298202 298454 298912 299157 299223 299580 299601 [...] (426 flits)
Class 0:
Remaining flits: 301097 301643 301681 302365 302597 303906 304136 304370 304617 304858 [...] (454 flits)
Measured flits: 301097 301643 301681 302365 302597 303906 304136 304370 304617 304858 [...] (422 flits)
Class 0:
Remaining flits: 307667 307909 308145 308386 308627 308874 309106 309351 309599 309838 [...] (463 flits)
Measured flits: 307667 307909 308145 308386 308627 308874 309106 309351 309599 309838 [...] (430 flits)
Class 0:
Remaining flits: 312759 312980 313212 313441 313671 313875 314097 314293 314531 314899 [...] (450 flits)
Measured flits: 312759 312980 313212 313441 313671 313875 314097 314293 314531 314899 [...] (238 flits)
Class 0:
Remaining flits: 317270 317488 317597 317622 317740 318183 318227 318606 319289 319377 [...] (454 flits)
Measured flits: 317270 317488 317597 317622 317740 318183 318227 318606 319289 319377 [...] (42 flits)
Class 0:
Remaining flits: 322399 322444 322522 322659 322861 323101 323230 323823 324038 324176 [...] (461 flits)
Measured flits: 322399 322444 322522 322659 322861 323101 323230 323823 324038 324176 [...] (12 flits)
Draining remaining packets ...
Time taken is 82948 cycles
====== Overall Traffic Statistics ======
====== Traffic class 0 ======
Packet latency average = 1353.87 (1 samples)
	minimum = 8 (1 samples)
	maximum = 10738 (1 samples)
Network latency average = 77.8229 (1 samples)
	minimum = 8 (1 samples)
	maximum = 3011 (1 samples)
Flit latency average = 73.2296 (1 samples)
	minimum = 8 (1 samples)
	maximum = 3011 (1 samples)
Fragmentation average = 0 (1 samples)
	minimum = 0 (1 samples)
	maximum = 0 (1 samples)
Injected packet rate average = 0.471133 (1 samples)
	minimum = 0.432318 (1 samples)
	maximum = 0.501091 (1 samples)
Accepted packet rate average = 0.47038 (1 samples)
	minimum = 0.430485 (1 samples)
	maximum = 0.501045 (1 samples)
Injected flit rate average = 0.471133 (1 samples)
	minimum = 0.432318 (1 samples)
	maximum = 0.501091 (1 samples)
Accepted flit rate average = 0.47038 (1 samples)
	minimum = 0.430485 (1 samples)
	maximum = 0.501045 (1 samples)
Injected packet size average = 1 (1 samples)
Accepted packet size average = 1 (1 samples)
Hops average = 2.9974 (1 samples)
Total run time 28.5744

