BEGIN Configuration File: D:\noc_huawei\noc\booksim2-noc_speedup_study\booksim2-noc_speedup_study\tests\data\results\p3_ramp_to_0p6_hold_current_scheme\tmp_configs\linear_scale_racke_tree_s2203.config
num_vcs     = 48;
vc_buf_size = 16;
wait_for_tail_credit = 1;

vc_allocator = islip;
sw_allocator = islip;
alloc_iters  = 16;

credit_delay   = 2;
routing_delay  = 0;
vc_alloc_delay = 1;
sw_alloc_delay = 1;
st_final_delay = 1;

input_speedup     = 1;
output_speedup    = 1;
internal_speedup  = 2.0;

sim_type = latency;
latency_thres  = 100000.0;
sim_count      = 1;
queue_sample_period_cycles = 0;

topology = mesh;
k  = 3;
n  = 2;

hybrid_transition_mode = linear_prob;
hybrid_xy_low_threshold = 0.35;
hybrid_racke_high_threshold = 0.65;
hybrid_buffer_soft_threshold = 0.50;
hybrid_buffer_hard_threshold = 0.85;
hybrid_buffer_release_threshold = 0.35;
hybrid_rate_soft_threshold = 0.55;
hybrid_rate_hard_threshold = 0.90;
hybrid_rate_weight = 0.25;
hybrid_congestion_alpha = 0.25;
hybrid_racke_increase_step = 0.25;
hybrid_racke_decrease_step = 0.10;
hybrid_epoch_cycles = 200;
hybrid_hold_cycles = 600;
hybrid_enable_midflight_override = 1;
hybrid_feedback_delay_per_hop = 1;
hybrid_flow_increase_step = 0.20;
hybrid_flow_decrease_step = 0.08;
hybrid_flow_hard_threshold = 0.95;

packet_size = 1;


ordered_injection_coefficients = {0.1666666667,0.3333333333,0.5};
ordered_injection_phase_cycles = {1000,1000,1000};
ordered_injection_source_order = {4,0,7,2,8,1,5,3,6};
ordered_injection_flow_peak_rate = 0.60;
warmup_periods = 2;
custom_perm_array = {4,7,6,5,1,2,0,8,3};
injection_process = scheduled;
injection_rate = 0.6;
scheduled_default_phase_cycles = 3000;
perm_seed = 2203;
hybrid_flow_hotspot_alpha = 0.85;
hybrid_stats_window_cycles = 3000;
hybrid_flow_hotspot_threshold = 0.8;
sample_period = 3000;
scheduled_injection_rates = {0.05,0.1,0.15,0.2,0.25,0.3,0.35,0.4,0.45,0.5,0.55,0.6,0.6,0.6,0.6,0.6};
traffic = custom_perm;
routing_function = racke_tree;
scheduled_phase_cycles = {3000,3000,3000,3000,3000,3000,3000,3000,3000,3000,3000,3000,3000,3000,3000,3000};
seed = 2203;
max_samples = 24;

END Configuration File: D:\noc_huawei\noc\booksim2-noc_speedup_study\booksim2-noc_speedup_study\tests\data\results\p3_ramp_to_0p6_hold_current_scheme\tmp_configs\linear_scale_racke_tree_s2203.config
Class 0:
Packet latency average = 12.9355
	minimum = 8
	maximum = 24
	95th percentile = 20.5
	99th percentile = 23.5
Network latency average = 12.9355
	minimum = 8
	maximum = 24
	95th percentile = 20.5
	99th percentile = 23.5
Slowest packet = 182
Flit latency average = 12.9355
	minimum = 8
	maximum = 24
	95th percentile = 20.5
	99th percentile = 23.5
Slowest flit = 182
Fragmentation average = 0
	minimum = 0
	maximum = 0
Injected packet rate average = 0.0513704
	minimum = 0.0443333 (at node 2)
	maximum = 0.0586667 (at node 6)
Accepted packet rate average = 0.0511111
	minimum = 0.044 (at node 6)
	maximum = 0.0586667 (at node 0)
Injected flit rate average = 0.0513704
	minimum = 0.0443333 (at node 2)
	maximum = 0.0586667 (at node 6)
Accepted flit rate average= 0.0511111
	minimum = 0.044 (at node 6)
	maximum = 0.0586667 (at node 0)
Injected packet length average = 1
Accepted packet length average = 1
Total in-flight flits = 7 (0 measured)
====== Peak Queue Occupancy Statistics (Absolute Max) ======
  Overall Max VC Occupancy = 1
  Overall Max Buffer Occupancy = 2
latency change    = 1
throughput change = 1
Class 0:
Packet latency average = 13.0397
	minimum = 8
	maximum = 25
	95th percentile = 20.5
	99th percentile = 23.5
Network latency average = 13.0397
	minimum = 8
	maximum = 25
	95th percentile = 20.5
	99th percentile = 23.5
Slowest packet = 3517
Flit latency average = 13.0397
	minimum = 8
	maximum = 25
	95th percentile = 20.5
	99th percentile = 23.5
Slowest flit = 3517
Fragmentation average = 0
	minimum = 0
	maximum = 0
Injected packet rate average = 0.0757963
	minimum = 0.0723333 (at node 1)
	maximum = 0.0813333 (at node 5)
Accepted packet rate average = 0.0756111
	minimum = 0.0723333 (at node 7)
	maximum = 0.0811667 (at node 2)
Injected flit rate average = 0.0757963
	minimum = 0.0723333 (at node 1)
	maximum = 0.0813333 (at node 5)
Accepted flit rate average= 0.0756111
	minimum = 0.0723333 (at node 7)
	maximum = 0.0811667 (at node 2)
Injected packet length average = 1
Accepted packet length average = 1
Total in-flight flits = 10 (0 measured)
====== Peak Queue Occupancy Statistics (Absolute Max) ======
  Overall Max VC Occupancy = 1
  Overall Max Buffer Occupancy = 2
latency change    = 0.00798865
throughput change = 0.324026
Warmed up ...Time used is 6000 cycles
Class 0:
Packet latency average = 13.1239
	minimum = 8
	maximum = 26
	95th percentile = 20.5
	99th percentile = 23.5
Network latency average = 13.1239
	minimum = 8
	maximum = 26
	95th percentile = 20.5
	99th percentile = 23.5
Slowest packet = 7210
Flit latency average = 13.1285
	minimum = 8
	maximum = 26
	95th percentile = 20.5
	99th percentile = 23.5
Slowest flit = 7210
Fragmentation average = 0
	minimum = 0
	maximum = 0
Injected packet rate average = 0.153074
	minimum = 0.145333 (at node 1)
	maximum = 0.163333 (at node 5)
Accepted packet rate average = 0.153074
	minimum = 0.144667 (at node 7)
	maximum = 0.163333 (at node 2)
Injected flit rate average = 0.153074
	minimum = 0.145333 (at node 1)
	maximum = 0.163333 (at node 5)
Accepted flit rate average= 0.153074
	minimum = 0.144667 (at node 7)
	maximum = 0.163333 (at node 2)
Injected packet length average = 1
Accepted packet length average = 1
Total in-flight flits = 10 (10 measured)
====== Peak Queue Occupancy Statistics (Absolute Max) ======
  Overall Max VC Occupancy = 1
  Overall Max Buffer Occupancy = 2
latency change    = 0.00642049
throughput change = 0.506049
Class 0:
Packet latency average = 13.2074
	minimum = 8
	maximum = 26
	95th percentile = 20.5
	99th percentile = 23.5
Network latency average = 13.2074
	minimum = 8
	maximum = 26
	95th percentile = 20.5
	99th percentile = 23.5
Slowest packet = 7210
Flit latency average = 13.2093
	minimum = 8
	maximum = 26
	95th percentile = 20.5
	99th percentile = 23.5
Slowest flit = 7210
Fragmentation average = 0
	minimum = 0
	maximum = 0
Injected packet rate average = 0.177148
	minimum = 0.168833 (at node 0)
	maximum = 0.183167 (at node 8)
Accepted packet rate average = 0.177037
	minimum = 0.168833 (at node 4)
	maximum = 0.1835 (at node 3)
Injected flit rate average = 0.177148
	minimum = 0.168833 (at node 0)
	maximum = 0.183167 (at node 8)
Accepted flit rate average= 0.177037
	minimum = 0.168833 (at node 4)
	maximum = 0.1835 (at node 3)
Injected packet length average = 1
Accepted packet length average = 1
Total in-flight flits = 16 (16 measured)
====== Peak Queue Occupancy Statistics (Absolute Max) ======
  Overall Max VC Occupancy = 1
  Overall Max Buffer Occupancy = 2
latency change    = 0.00632187
throughput change = 0.135356
Class 0:
Packet latency average = 13.2471
	minimum = 8
	maximum = 26
	95th percentile = 20.5
	99th percentile = 23.5
Network latency average = 13.2471
	minimum = 8
	maximum = 26
	95th percentile = 20.5
	99th percentile = 23.5
Slowest packet = 7210
Flit latency average = 13.2481
	minimum = 8
	maximum = 26
	95th percentile = 20.5
	99th percentile = 23.5
Slowest flit = 7210
Fragmentation average = 0
	minimum = 0
	maximum = 0
Injected packet rate average = 0.202395
	minimum = 0.195444 (at node 6)
	maximum = 0.208 (at node 8)
Accepted packet rate average = 0.202148
	minimum = 0.195111 (at node 0)
	maximum = 0.207778 (at node 3)
Injected flit rate average = 0.202395
	minimum = 0.195444 (at node 6)
	maximum = 0.208 (at node 8)
Accepted flit rate average= 0.202148
	minimum = 0.195111 (at node 0)
	maximum = 0.207778 (at node 3)
Injected packet length average = 1
Accepted packet length average = 1
Total in-flight flits = 30 (30 measured)
====== Peak Queue Occupancy Statistics (Absolute Max) ======
  Overall Max VC Occupancy = 1
  Overall Max Buffer Occupancy = 2
latency change    = 0.00299177
throughput change = 0.124221
Class 0:
Packet latency average = 13.2984
	minimum = 8
	maximum = 27
	95th percentile = 20.5
	99th percentile = 23.5
Network latency average = 13.2984
	minimum = 8
	maximum = 27
	95th percentile = 20.5
	99th percentile = 23.5
Slowest packet = 21166
Flit latency average = 13.2991
	minimum = 8
	maximum = 27
	95th percentile = 20.5
	99th percentile = 23.5
Slowest flit = 21166
Fragmentation average = 0
	minimum = 0
	maximum = 0
Injected packet rate average = 0.227157
	minimum = 0.219167 (at node 6)
	maximum = 0.234333 (at node 8)
Accepted packet rate average = 0.226926
	minimum = 0.218833 (at node 0)
	maximum = 0.23425 (at node 3)
Injected flit rate average = 0.227157
	minimum = 0.219167 (at node 6)
	maximum = 0.234333 (at node 8)
Accepted flit rate average= 0.226926
	minimum = 0.218833 (at node 0)
	maximum = 0.23425 (at node 3)
Injected packet length average = 1
Accepted packet length average = 1
Total in-flight flits = 35 (35 measured)
====== Peak Queue Occupancy Statistics (Absolute Max) ======
  Overall Max VC Occupancy = 1
  Overall Max Buffer Occupancy = 2
latency change    = 0.00385949
throughput change = 0.109189
Class 0:
Packet latency average = 13.3347
	minimum = 8
	maximum = 28
	95th percentile = 20.5
	99th percentile = 23.5
Network latency average = 13.3347
	minimum = 8
	maximum = 28
	95th percentile = 20.5
	99th percentile = 23.5
Slowest packet = 29051
Flit latency average = 13.3352
	minimum = 8
	maximum = 28
	95th percentile = 20.5
	99th percentile = 23.5
Slowest flit = 29051
Fragmentation average = 0
	minimum = 0
	maximum = 0
Injected packet rate average = 0.252178
	minimum = 0.2454 (at node 6)
	maximum = 0.259333 (at node 8)
Accepted packet rate average = 0.251919
	minimum = 0.245133 (at node 0)
	maximum = 0.259067 (at node 3)
Injected flit rate average = 0.252178
	minimum = 0.2454 (at node 6)
	maximum = 0.259333 (at node 8)
Accepted flit rate average= 0.251919
	minimum = 0.245133 (at node 0)
	maximum = 0.259067 (at node 3)
Injected packet length average = 1
Accepted packet length average = 1
Total in-flight flits = 45 (45 measured)
====== Peak Queue Occupancy Statistics (Absolute Max) ======
  Overall Max VC Occupancy = 1
  Overall Max Buffer Occupancy = 2
latency change    = 0.00272182
throughput change = 0.099209
Class 0:
Packet latency average = 13.3846
	minimum = 8
	maximum = 28
	95th percentile = 20.5
	99th percentile = 23.5
Network latency average = 13.3846
	minimum = 8
	maximum = 28
	95th percentile = 20.5
	99th percentile = 23.5
Slowest packet = 29051
Flit latency average = 13.385
	minimum = 8
	maximum = 28
	95th percentile = 20.5
	99th percentile = 23.5
Slowest flit = 29051
Fragmentation average = 0
	minimum = 0
	maximum = 0
Injected packet rate average = 0.276932
	minimum = 0.273444 (at node 1)
	maximum = 0.283444 (at node 8)
Accepted packet rate average = 0.276691
	minimum = 0.273 (at node 7)
	maximum = 0.283222 (at node 3)
Injected flit rate average = 0.276932
	minimum = 0.273444 (at node 1)
	maximum = 0.283444 (at node 8)
Accepted flit rate average= 0.276691
	minimum = 0.273 (at node 7)
	maximum = 0.283222 (at node 3)
Injected packet length average = 1
Accepted packet length average = 1
Total in-flight flits = 49 (49 measured)
====== Peak Queue Occupancy Statistics (Absolute Max) ======
  Overall Max VC Occupancy = 1
  Overall Max Buffer Occupancy = 2
latency change    = 0.00373174
throughput change = 0.0895324
Class 0:
Packet latency average = 13.433
	minimum = 8
	maximum = 28
	95th percentile = 20.5
	99th percentile = 23.5
Network latency average = 13.433
	minimum = 8
	maximum = 28
	95th percentile = 20.5
	99th percentile = 23.5
Slowest packet = 29051
Flit latency average = 13.4333
	minimum = 8
	maximum = 28
	95th percentile = 20.5
	99th percentile = 23.5
Slowest flit = 29051
Fragmentation average = 0
	minimum = 0
	maximum = 0
Injected packet rate average = 0.302053
	minimum = 0.294905 (at node 1)
	maximum = 0.30881 (at node 8)
Accepted packet rate average = 0.30181
	minimum = 0.294667 (at node 7)
	maximum = 0.308667 (at node 3)
Injected flit rate average = 0.302053
	minimum = 0.294905 (at node 1)
	maximum = 0.30881 (at node 8)
Accepted flit rate average= 0.30181
	minimum = 0.294667 (at node 7)
	maximum = 0.308667 (at node 3)
Injected packet length average = 1
Accepted packet length average = 1
Total in-flight flits = 56 (56 measured)
====== Peak Queue Occupancy Statistics (Absolute Max) ======
  Overall Max VC Occupancy = 1
  Overall Max Buffer Occupancy = 2
latency change    = 0.0036033
throughput change = 0.0832252
Class 0:
Packet latency average = 13.486
	minimum = 8
	maximum = 29
	95th percentile = 21.5
	99th percentile = 23.5
Network latency average = 13.486
	minimum = 8
	maximum = 29
	95th percentile = 21.5
	99th percentile = 23.5
Slowest packet = 61779
Flit latency average = 13.4862
	minimum = 8
	maximum = 29
	95th percentile = 21.5
	99th percentile = 23.5
Slowest flit = 61779
Fragmentation average = 0
	minimum = 0
	maximum = 0
Injected packet rate average = 0.326856
	minimum = 0.320958 (at node 1)
	maximum = 0.332375 (at node 8)
Accepted packet rate average = 0.32669
	minimum = 0.32075 (at node 7)
	maximum = 0.332208 (at node 3)
Injected flit rate average = 0.326856
	minimum = 0.320958 (at node 1)
	maximum = 0.332375 (at node 8)
Accepted flit rate average= 0.32669
	minimum = 0.32075 (at node 7)
	maximum = 0.332208 (at node 3)
Injected packet length average = 1
Accepted packet length average = 1
Total in-flight flits = 46 (46 measured)
====== Peak Queue Occupancy Statistics (Absolute Max) ======
  Overall Max VC Occupancy = 1
  Overall Max Buffer Occupancy = 2
latency change    = 0.00392645
throughput change = 0.0761588
Class 0:
Packet latency average = 13.5487
	minimum = 8
	maximum = 29
	95th percentile = 21.5
	99th percentile = 24.5
Network latency average = 13.5487
	minimum = 8
	maximum = 29
	95th percentile = 21.5
	99th percentile = 24.5
Slowest packet = 61779
Flit latency average = 13.5489
	minimum = 8
	maximum = 29
	95th percentile = 21.5
	99th percentile = 24.5
Slowest flit = 61779
Fragmentation average = 0
	minimum = 0
	maximum = 0
Injected packet rate average = 0.35165
	minimum = 0.346333 (at node 1)
	maximum = 0.356852 (at node 8)
Accepted packet rate average = 0.351383
	minimum = 0.346037 (at node 7)
	maximum = 0.356593 (at node 3)
Injected flit rate average = 0.35165
	minimum = 0.346333 (at node 1)
	maximum = 0.356852 (at node 8)
Accepted flit rate average= 0.351383
	minimum = 0.346037 (at node 7)
	maximum = 0.356593 (at node 3)
Injected packet length average = 1
Accepted packet length average = 1
Total in-flight flits = 75 (75 measured)
====== Peak Queue Occupancy Statistics (Absolute Max) ======
  Overall Max VC Occupancy = 1
  Overall Max Buffer Occupancy = 2
latency change    = 0.00462954
throughput change = 0.0702735
Class 0:
Packet latency average = 13.6143
	minimum = 8
	maximum = 29
	95th percentile = 21.5
	99th percentile = 24.5
Network latency average = 13.6143
	minimum = 8
	maximum = 29
	95th percentile = 21.5
	99th percentile = 24.5
Slowest packet = 61779
Flit latency average = 13.6145
	minimum = 8
	maximum = 29
	95th percentile = 21.5
	99th percentile = 24.5
Slowest flit = 61779
Fragmentation average = 0
	minimum = 0
	maximum = 0
Injected packet rate average = 0.376741
	minimum = 0.371167 (at node 1)
	maximum = 0.3818 (at node 8)
Accepted packet rate average = 0.376511
	minimum = 0.371 (at node 7)
	maximum = 0.381567 (at node 3)
Injected flit rate average = 0.376741
	minimum = 0.371167 (at node 1)
	maximum = 0.3818 (at node 8)
Accepted flit rate average= 0.376511
	minimum = 0.371 (at node 7)
	maximum = 0.381567 (at node 3)
Injected packet length average = 1
Accepted packet length average = 1
Total in-flight flits = 72 (72 measured)
====== Peak Queue Occupancy Statistics (Absolute Max) ======
  Overall Max VC Occupancy = 1
  Overall Max Buffer Occupancy = 2
latency change    = 0.00481861
throughput change = 0.0667401
Class 0:
Packet latency average = 13.6633
	minimum = 8
	maximum = 29
	95th percentile = 21.5
	99th percentile = 24.5
Network latency average = 13.6633
	minimum = 8
	maximum = 29
	95th percentile = 21.5
	99th percentile = 24.5
Slowest packet = 61779
Flit latency average = 13.6634
	minimum = 8
	maximum = 29
	95th percentile = 21.5
	99th percentile = 24.5
Slowest flit = 61779
Fragmentation average = 0
	minimum = 0
	maximum = 0
Injected packet rate average = 0.397562
	minimum = 0.392636 (at node 1)
	maximum = 0.402152 (at node 8)
Accepted packet rate average = 0.39733
	minimum = 0.392364 (at node 7)
	maximum = 0.401879 (at node 3)
Injected flit rate average = 0.397562
	minimum = 0.392636 (at node 1)
	maximum = 0.402152 (at node 8)
Accepted flit rate average= 0.39733
	minimum = 0.392364 (at node 7)
	maximum = 0.401879 (at node 3)
Injected packet length average = 1
Accepted packet length average = 1
Total in-flight flits = 79 (79 measured)
====== Peak Queue Occupancy Statistics (Absolute Max) ======
  Overall Max VC Occupancy = 1
  Overall Max Buffer Occupancy = 2
latency change    = 0.00358606
throughput change = 0.0523969
Class 0:
Packet latency average = 13.7
	minimum = 8
	maximum = 29
	95th percentile = 21.5
	99th percentile = 24.5
Network latency average = 13.7
	minimum = 8
	maximum = 29
	95th percentile = 21.5
	99th percentile = 24.5
Slowest packet = 61779
Flit latency average = 13.7001
	minimum = 8
	maximum = 29
	95th percentile = 21.5
	99th percentile = 24.5
Slowest flit = 61779
Fragmentation average = 0
	minimum = 0
	maximum = 0
Injected packet rate average = 0.414528
	minimum = 0.409778 (at node 6)
	maximum = 0.418444 (at node 8)
Accepted packet rate average = 0.41433
	minimum = 0.409528 (at node 0)
	maximum = 0.418194 (at node 3)
Injected flit rate average = 0.414528
	minimum = 0.409778 (at node 6)
	maximum = 0.418444 (at node 8)
Accepted flit rate average= 0.41433
	minimum = 0.409528 (at node 0)
	maximum = 0.418194 (at node 3)
Injected packet length average = 1
Accepted packet length average = 1
Total in-flight flits = 74 (74 measured)
====== Peak Queue Occupancy Statistics (Absolute Max) ======
  Overall Max VC Occupancy = 1
  Overall Max Buffer Occupancy = 2
latency change    = 0.00267617
throughput change = 0.0410307
Class 0:
Packet latency average = 13.7293
	minimum = 8
	maximum = 29
	95th percentile = 21.5
	99th percentile = 24.5
Network latency average = 13.7293
	minimum = 8
	maximum = 29
	95th percentile = 21.5
	99th percentile = 24.5
Slowest packet = 61779
Flit latency average = 13.7294
	minimum = 8
	maximum = 29
	95th percentile = 21.5
	99th percentile = 24.5
Slowest flit = 61779
Fragmentation average = 0
	minimum = 0
	maximum = 0
Injected packet rate average = 0.428897
	minimum = 0.423692 (at node 6)
	maximum = 0.433821 (at node 8)
Accepted packet rate average = 0.428726
	minimum = 0.423564 (at node 0)
	maximum = 0.433692 (at node 3)
Injected flit rate average = 0.428897
	minimum = 0.423692 (at node 6)
	maximum = 0.433821 (at node 8)
Accepted flit rate average= 0.428726
	minimum = 0.423564 (at node 0)
	maximum = 0.433692 (at node 3)
Injected packet length average = 1
Accepted packet length average = 1
Total in-flight flits = 70 (70 measured)
====== Peak Queue Occupancy Statistics (Absolute Max) ======
  Overall Max VC Occupancy = 1
  Overall Max Buffer Occupancy = 2
latency change    = 0.00213437
throughput change = 0.0335791
Class 0:
Packet latency average = 13.7517
	minimum = 8
	maximum = 31
	95th percentile = 21.5
	99th percentile = 24.5
Network latency average = 13.7517
	minimum = 8
	maximum = 31
	95th percentile = 21.5
	99th percentile = 24.5
Slowest packet = 155871
Flit latency average = 13.7518
	minimum = 8
	maximum = 31
	95th percentile = 21.5
	99th percentile = 24.5
Slowest flit = 155871
Fragmentation average = 0
	minimum = 0
	maximum = 0
Injected packet rate average = 0.440974
	minimum = 0.436429 (at node 6)
	maximum = 0.44631 (at node 8)
Accepted packet rate average = 0.440812
	minimum = 0.436167 (at node 0)
	maximum = 0.446095 (at node 3)
Injected flit rate average = 0.440974
	minimum = 0.436429 (at node 6)
	maximum = 0.44631 (at node 8)
Accepted flit rate average= 0.440812
	minimum = 0.436167 (at node 0)
	maximum = 0.446095 (at node 3)
Injected packet length average = 1
Accepted packet length average = 1
Total in-flight flits = 71 (71 measured)
====== Peak Queue Occupancy Statistics (Absolute Max) ======
  Overall Max VC Occupancy = 1
  Overall Max Buffer Occupancy = 2
latency change    = 0.00163119
throughput change = 0.0274168
Draining all recorded packets ...
Draining remaining packets ...
Time taken is 48045 cycles
====== Overall Traffic Statistics ======
====== Traffic class 0 ======
Packet latency average = 13.7525 (1 samples)
	minimum = 8 (1 samples)
	maximum = 31 (1 samples)
Network latency average = 13.7525 (1 samples)
	minimum = 8 (1 samples)
	maximum = 31 (1 samples)
Flit latency average = 13.7529 (1 samples)
	minimum = 8 (1 samples)
	maximum = 31 (1 samples)
Fragmentation average = 0 (1 samples)
	minimum = 0 (1 samples)
	maximum = 0 (1 samples)
Injected packet rate average = 0.440974 (1 samples)
	minimum = 0.436429 (1 samples)
	maximum = 0.44631 (1 samples)
Accepted packet rate average = 0.440812 (1 samples)
	minimum = 0.436167 (1 samples)
	maximum = 0.446095 (1 samples)
Injected flit rate average = 0.440974 (1 samples)
	minimum = 0.436429 (1 samples)
	maximum = 0.44631 (1 samples)
Accepted flit rate average = 0.440812 (1 samples)
	minimum = 0.436167 (1 samples)
	maximum = 0.446095 (1 samples)
Injected packet size average = 1 (1 samples)
Accepted packet size average = 1 (1 samples)
Hops average = 3.66713 (1 samples)
Total run time 5.7127

