BEGIN Configuration File: D:\noc_huawei\noc\booksim2-noc_speedup_study\booksim2-noc_speedup_study\tests\data\results\p3_ramp_to_0p6_hold_current_scheme\tmp_configs\linear_scale_dim_order_s2203.config
num_vcs     = 48;
vc_buf_size = 16;
wait_for_tail_credit = 1;

vc_allocator = islip;
sw_allocator = islip;
alloc_iters  = 16;

credit_delay   = 2;
routing_delay  = 0;
vc_alloc_delay = 1;
sw_alloc_delay = 1;
st_final_delay = 1;

input_speedup     = 1;
output_speedup    = 1;
internal_speedup  = 2.0;

sim_type = latency;
latency_thres  = 100000.0;
sim_count      = 1;
queue_sample_period_cycles = 0;

topology = mesh;
k  = 3;
n  = 2;

hybrid_transition_mode = linear_prob;
hybrid_xy_low_threshold = 0.35;
hybrid_racke_high_threshold = 0.65;
hybrid_buffer_soft_threshold = 0.50;
hybrid_buffer_hard_threshold = 0.85;
hybrid_buffer_release_threshold = 0.35;
hybrid_rate_soft_threshold = 0.55;
hybrid_rate_hard_threshold = 0.90;
hybrid_rate_weight = 0.25;
hybrid_congestion_alpha = 0.25;
hybrid_racke_increase_step = 0.25;
hybrid_racke_decrease_step = 0.10;
hybrid_epoch_cycles = 200;
hybrid_hold_cycles = 600;
hybrid_enable_midflight_override = 1;
hybrid_feedback_delay_per_hop = 1;
hybrid_flow_increase_step = 0.20;
hybrid_flow_decrease_step = 0.08;
hybrid_flow_hard_threshold = 0.95;

packet_size = 1;


ordered_injection_coefficients = {0.1666666667,0.3333333333,0.5};
ordered_injection_phase_cycles = {1000,1000,1000};
ordered_injection_source_order = {4,0,7,2,8,1,5,3,6};
ordered_injection_flow_peak_rate = 0.60;
warmup_periods = 2;
custom_perm_array = {4,7,6,5,1,2,0,8,3};
injection_process = scheduled;
injection_rate = 0.6;
scheduled_default_phase_cycles = 3000;
perm_seed = 2203;
hybrid_flow_hotspot_alpha = 0.85;
hybrid_stats_window_cycles = 3000;
hybrid_flow_hotspot_threshold = 0.8;
sample_period = 3000;
scheduled_injection_rates = {0.05,0.1,0.15,0.2,0.25,0.3,0.35,0.4,0.45,0.5,0.55,0.6,0.6,0.6,0.6,0.6};
traffic = custom_perm;
routing_function = dim_order;
scheduled_phase_cycles = {3000,3000,3000,3000,3000,3000,3000,3000,3000,3000,3000,3000,3000,3000,3000,3000};
seed = 2203;
max_samples = 24;

END Configuration File: D:\noc_huawei\noc\booksim2-noc_speedup_study\booksim2-noc_speedup_study\tests\data\results\p3_ramp_to_0p6_hold_current_scheme\tmp_configs\linear_scale_dim_order_s2203.config
Class 0:
Packet latency average = 10.8444
	minimum = 8
	maximum = 17
	95th percentile = 17.5
	99th percentile = 17.5
Network latency average = 10.8444
	minimum = 8
	maximum = 17
	95th percentile = 17.5
	99th percentile = 17.5
Slowest packet = 16
Flit latency average = 10.8444
	minimum = 8
	maximum = 17
	95th percentile = 17.5
	99th percentile = 17.5
Slowest flit = 16
Fragmentation average = 0
	minimum = 0
	maximum = 0
Injected packet rate average = 0.0513704
	minimum = 0.0443333 (at node 2)
	maximum = 0.0586667 (at node 6)
Accepted packet rate average = 0.0511852
	minimum = 0.044 (at node 6)
	maximum = 0.0586667 (at node 0)
Injected flit rate average = 0.0513704
	minimum = 0.0443333 (at node 2)
	maximum = 0.0586667 (at node 6)
Accepted flit rate average= 0.0511852
	minimum = 0.044 (at node 6)
	maximum = 0.0586667 (at node 0)
Injected packet length average = 1
Accepted packet length average = 1
Total in-flight flits = 5 (0 measured)
====== Peak Queue Occupancy Statistics (Absolute Max) ======
  Overall Max VC Occupancy = 1
  Overall Max Buffer Occupancy = 2
latency change    = 1
throughput change = 1
Class 0:
Packet latency average = 10.954
	minimum = 8
	maximum = 17
	95th percentile = 17.5
	99th percentile = 17.5
Network latency average = 10.954
	minimum = 8
	maximum = 17
	95th percentile = 17.5
	99th percentile = 17.5
Slowest packet = 16
Flit latency average = 10.954
	minimum = 8
	maximum = 17
	95th percentile = 17.5
	99th percentile = 17.5
Slowest flit = 16
Fragmentation average = 0
	minimum = 0
	maximum = 0
Injected packet rate average = 0.0757963
	minimum = 0.0723333 (at node 1)
	maximum = 0.0813333 (at node 5)
Accepted packet rate average = 0.0756481
	minimum = 0.0723333 (at node 7)
	maximum = 0.0811667 (at node 2)
Injected flit rate average = 0.0757963
	minimum = 0.0723333 (at node 1)
	maximum = 0.0813333 (at node 5)
Accepted flit rate average= 0.0756481
	minimum = 0.0723333 (at node 7)
	maximum = 0.0811667 (at node 2)
Injected packet length average = 1
Accepted packet length average = 1
Total in-flight flits = 8 (0 measured)
====== Peak Queue Occupancy Statistics (Absolute Max) ======
  Overall Max VC Occupancy = 1
  Overall Max Buffer Occupancy = 2
latency change    = 0.0100009
throughput change = 0.323378
Warmed up ...Time used is 6000 cycles
Class 0:
Packet latency average = 11.0041
	minimum = 8
	maximum = 17
	95th percentile = 17.5
	99th percentile = 17.5
Network latency average = 11.0041
	minimum = 8
	maximum = 17
	95th percentile = 17.5
	99th percentile = 17.5
Slowest packet = 4094
Flit latency average = 11.0056
	minimum = 8
	maximum = 17
	95th percentile = 17.5
	99th percentile = 17.5
Slowest flit = 4087
Fragmentation average = 0
	minimum = 0
	maximum = 0
Injected packet rate average = 0.153074
	minimum = 0.145333 (at node 1)
	maximum = 0.163333 (at node 5)
Accepted packet rate average = 0.153037
	minimum = 0.144667 (at node 7)
	maximum = 0.163667 (at node 2)
Injected flit rate average = 0.153074
	minimum = 0.145333 (at node 1)
	maximum = 0.163333 (at node 5)
Accepted flit rate average= 0.153037
	minimum = 0.144667 (at node 7)
	maximum = 0.163667 (at node 2)
Injected packet length average = 1
Accepted packet length average = 1
Total in-flight flits = 9 (9 measured)
====== Peak Queue Occupancy Statistics (Absolute Max) ======
  Overall Max VC Occupancy = 1
  Overall Max Buffer Occupancy = 2
latency change    = 0.00455686
throughput change = 0.505687
Class 0:
Packet latency average = 11.0913
	minimum = 8
	maximum = 17
	95th percentile = 17.5
	99th percentile = 17.5
Network latency average = 11.0913
	minimum = 8
	maximum = 17
	95th percentile = 17.5
	99th percentile = 17.5
Slowest packet = 4094
Flit latency average = 11.0918
	minimum = 8
	maximum = 17
	95th percentile = 17.5
	99th percentile = 17.5
Slowest flit = 4087
Fragmentation average = 0
	minimum = 0
	maximum = 0
Injected packet rate average = 0.177148
	minimum = 0.168833 (at node 0)
	maximum = 0.183167 (at node 8)
Accepted packet rate average = 0.177074
	minimum = 0.168833 (at node 4)
	maximum = 0.1835 (at node 3)
Injected flit rate average = 0.177148
	minimum = 0.168833 (at node 0)
	maximum = 0.183167 (at node 8)
Accepted flit rate average= 0.177074
	minimum = 0.168833 (at node 4)
	maximum = 0.1835 (at node 3)
Injected packet length average = 1
Accepted packet length average = 1
Total in-flight flits = 12 (12 measured)
====== Peak Queue Occupancy Statistics (Absolute Max) ======
  Overall Max VC Occupancy = 1
  Overall Max Buffer Occupancy = 2
latency change    = 0.00785739
throughput change = 0.135746
Class 0:
Packet latency average = 11.102
	minimum = 8
	maximum = 17
	95th percentile = 17.5
	99th percentile = 17.5
Network latency average = 11.102
	minimum = 8
	maximum = 17
	95th percentile = 17.5
	99th percentile = 17.5
Slowest packet = 4094
Flit latency average = 11.1023
	minimum = 8
	maximum = 17
	95th percentile = 17.5
	99th percentile = 17.5
Slowest flit = 4087
Fragmentation average = 0
	minimum = 0
	maximum = 0
Injected packet rate average = 0.202395
	minimum = 0.195444 (at node 6)
	maximum = 0.208 (at node 8)
Accepted packet rate average = 0.202198
	minimum = 0.195222 (at node 0)
	maximum = 0.207778 (at node 3)
Injected flit rate average = 0.202395
	minimum = 0.195444 (at node 6)
	maximum = 0.208 (at node 8)
Accepted flit rate average= 0.202198
	minimum = 0.195222 (at node 0)
	maximum = 0.207778 (at node 3)
Injected packet length average = 1
Accepted packet length average = 1
Total in-flight flits = 24 (24 measured)
====== Peak Queue Occupancy Statistics (Absolute Max) ======
  Overall Max VC Occupancy = 1
  Overall Max Buffer Occupancy = 2
latency change    = 0.000967861
throughput change = 0.124252
Class 0:
Packet latency average = 11.1389
	minimum = 8
	maximum = 18
	95th percentile = 17.5
	99th percentile = 17.5
Network latency average = 11.1389
	minimum = 8
	maximum = 18
	95th percentile = 17.5
	99th percentile = 17.5
Slowest packet = 24317
Flit latency average = 11.1391
	minimum = 8
	maximum = 18
	95th percentile = 17.5
	99th percentile = 17.5
Slowest flit = 24317
Fragmentation average = 0
	minimum = 0
	maximum = 0
Injected packet rate average = 0.227157
	minimum = 0.219167 (at node 6)
	maximum = 0.234333 (at node 8)
Accepted packet rate average = 0.226981
	minimum = 0.218917 (at node 0)
	maximum = 0.23425 (at node 3)
Injected flit rate average = 0.227157
	minimum = 0.219167 (at node 6)
	maximum = 0.234333 (at node 8)
Accepted flit rate average= 0.226981
	minimum = 0.218917 (at node 0)
	maximum = 0.23425 (at node 3)
Injected packet length average = 1
Accepted packet length average = 1
Total in-flight flits = 27 (27 measured)
====== Peak Queue Occupancy Statistics (Absolute Max) ======
  Overall Max VC Occupancy = 1
  Overall Max Buffer Occupancy = 2
latency change    = 0.00331537
throughput change = 0.109189
Class 0:
Packet latency average = 11.1702
	minimum = 8
	maximum = 18
	95th percentile = 17.5
	99th percentile = 17.5
Network latency average = 11.1702
	minimum = 8
	maximum = 18
	95th percentile = 17.5
	99th percentile = 17.5
Slowest packet = 24317
Flit latency average = 11.1703
	minimum = 8
	maximum = 18
	95th percentile = 17.5
	99th percentile = 17.5
Slowest flit = 24317
Fragmentation average = 0
	minimum = 0
	maximum = 0
Injected packet rate average = 0.252178
	minimum = 0.2454 (at node 6)
	maximum = 0.259333 (at node 8)
Accepted packet rate average = 0.251948
	minimum = 0.2452 (at node 0)
	maximum = 0.259067 (at node 3)
Injected flit rate average = 0.252178
	minimum = 0.2454 (at node 6)
	maximum = 0.259333 (at node 8)
Accepted flit rate average= 0.251948
	minimum = 0.2452 (at node 0)
	maximum = 0.259067 (at node 3)
Injected packet length average = 1
Accepted packet length average = 1
Total in-flight flits = 39 (39 measured)
====== Peak Queue Occupancy Statistics (Absolute Max) ======
  Overall Max VC Occupancy = 1
  Overall Max Buffer Occupancy = 2
latency change    = 0.00279368
throughput change = 0.0990945
Class 0:
Packet latency average = 11.2645
	minimum = 8
	maximum = 27
	95th percentile = 17.5
	99th percentile = 17.5
Network latency average = 11.2645
	minimum = 8
	maximum = 27
	95th percentile = 17.5
	99th percentile = 17.5
Slowest packet = 42672
Flit latency average = 11.2646
	minimum = 8
	maximum = 27
	95th percentile = 17.5
	99th percentile = 17.5
Slowest flit = 42672
Fragmentation average = 0
	minimum = 0
	maximum = 0
Injected packet rate average = 0.276932
	minimum = 0.273444 (at node 1)
	maximum = 0.283444 (at node 8)
Accepted packet rate average = 0.276704
	minimum = 0.273056 (at node 7)
	maximum = 0.283222 (at node 3)
Injected flit rate average = 0.276932
	minimum = 0.273444 (at node 1)
	maximum = 0.283444 (at node 8)
Accepted flit rate average= 0.276704
	minimum = 0.273056 (at node 7)
	maximum = 0.283222 (at node 3)
Injected packet length average = 1
Accepted packet length average = 1
Total in-flight flits = 45 (45 measured)
====== Peak Queue Occupancy Statistics (Absolute Max) ======
  Overall Max VC Occupancy = 1
  Overall Max Buffer Occupancy = 2
latency change    = 0.00837896
throughput change = 0.0894659
Class 0:
Packet latency average = 11.4132
	minimum = 8
	maximum = 27
	95th percentile = 17.5
	99th percentile = 18.5
Network latency average = 11.4132
	minimum = 8
	maximum = 27
	95th percentile = 17.5
	99th percentile = 18.5
Slowest packet = 42672
Flit latency average = 11.4132
	minimum = 8
	maximum = 27
	95th percentile = 17.5
	99th percentile = 18.5
Slowest flit = 42672
Fragmentation average = 0
	minimum = 0
	maximum = 0
Injected packet rate average = 0.302053
	minimum = 0.294905 (at node 1)
	maximum = 0.30881 (at node 8)
Accepted packet rate average = 0.301831
	minimum = 0.294714 (at node 7)
	maximum = 0.308619 (at node 3)
Injected flit rate average = 0.302053
	minimum = 0.294905 (at node 1)
	maximum = 0.30881 (at node 8)
Accepted flit rate average= 0.301831
	minimum = 0.294714 (at node 7)
	maximum = 0.308619 (at node 3)
Injected packet length average = 1
Accepted packet length average = 1
Total in-flight flits = 50 (50 measured)
====== Peak Queue Occupancy Statistics (Absolute Max) ======
  Overall Max VC Occupancy = 1
  Overall Max Buffer Occupancy = 2
latency change    = 0.0130239
throughput change = 0.0832486
Class 0:
Packet latency average = 12.5367
	minimum = 8
	maximum = 106
	95th percentile = 21.5
	99th percentile = 41.5
Network latency average = 12.5367
	minimum = 8
	maximum = 106
	95th percentile = 21.5
	99th percentile = 41.5
Slowest packet = 73932
Flit latency average = 12.5366
	minimum = 8
	maximum = 106
	95th percentile = 21.5
	99th percentile = 41.5
Slowest flit = 73932
Fragmentation average = 0
	minimum = 0
	maximum = 0
Injected packet rate average = 0.326856
	minimum = 0.320958 (at node 1)
	maximum = 0.332375 (at node 8)
Accepted packet rate average = 0.326306
	minimum = 0.318917 (at node 7)
	maximum = 0.331958 (at node 3)
Injected flit rate average = 0.326856
	minimum = 0.320958 (at node 1)
	maximum = 0.332375 (at node 8)
Accepted flit rate average= 0.326306
	minimum = 0.318917 (at node 7)
	maximum = 0.331958 (at node 3)
Injected packet length average = 1
Accepted packet length average = 1
Total in-flight flits = 127 (127 measured)
====== Peak Queue Occupancy Statistics (Absolute Max) ======
  Overall Max VC Occupancy = 1
  Overall Max Buffer Occupancy = 30
latency change    = 0.089619
throughput change = 0.075006
Class 0:
Packet latency average = 23.8809
	minimum = 8
	maximum = 1432
	95th percentile = 72.5
	99th percentile = 309.5
Network latency average = 21.1958
	minimum = 8
	maximum = 1201
	95th percentile = 60.5
	99th percentile = 231.5
Slowest packet = 82988
Flit latency average = 21.1949
	minimum = 8
	maximum = 1201
	95th percentile = 60.5
	99th percentile = 231.5
Slowest flit = 82988
Fragmentation average = 0
	minimum = 0
	maximum = 0
Injected packet rate average = 0.349975
	minimum = 0.338037 (at node 1)
	maximum = 0.356741 (at node 8)
Accepted packet rate average = 0.348835
	minimum = 0.335111 (at node 7)
	maximum = 0.355148 (at node 3)
Injected flit rate average = 0.349975
	minimum = 0.338037 (at node 1)
	maximum = 0.356741 (at node 8)
Accepted flit rate average= 0.348835
	minimum = 0.335111 (at node 7)
	maximum = 0.355148 (at node 3)
Injected packet length average = 1
Accepted packet length average = 1
Total in-flight flits = 287 (287 measured)
====== Peak Queue Occupancy Statistics (Absolute Max) ======
  Overall Max VC Occupancy = 1
  Overall Max Buffer Occupancy = 48
latency change    = 0.475032
throughput change = 0.0645859
Class 0:
Packet latency average = 52.5186
	minimum = 8
	maximum = 2499
	95th percentile = 307.5
	99th percentile = 996.5
Network latency average = 30.5019
	minimum = 8
	maximum = 2499
	95th percentile = 95.5
	99th percentile = 421.5
Slowest packet = 90778
Flit latency average = 30.5004
	minimum = 8
	maximum = 2499
	95th percentile = 95.5
	99th percentile = 421.5
Slowest flit = 90778
Fragmentation average = 0
	minimum = 0
	maximum = 0
Injected packet rate average = 0.3714
	minimum = 0.3585 (at node 0)
	maximum = 0.3811 (at node 4)
Accepted packet rate average = 0.36977
	minimum = 0.354433 (at node 4)
	maximum = 0.380967 (at node 1)
Injected flit rate average = 0.3714
	minimum = 0.3585 (at node 0)
	maximum = 0.3811 (at node 4)
Accepted flit rate average= 0.36977
	minimum = 0.354433 (at node 4)
	maximum = 0.380967 (at node 1)
Injected packet length average = 1
Accepted packet length average = 1
Total in-flight flits = 450 (450 measured)
====== Peak Queue Occupancy Statistics (Absolute Max) ======
  Overall Max VC Occupancy = 1
  Overall Max Buffer Occupancy = 48
latency change    = 0.545286
throughput change = 0.0566162
Class 0:
Packet latency average = 101.031
	minimum = 8
	maximum = 3115
	95th percentile = 927.5
	99th percentile = 999.5
Network latency average = 38.2
	minimum = 8
	maximum = 3115
	95th percentile = 134.5
	99th percentile = 513.5
Slowest packet = 91810
Flit latency average = 38.1982
	minimum = 8
	maximum = 3115
	95th percentile = 134.5
	99th percentile = 513.5
Slowest flit = 91810
Fragmentation average = 0
	minimum = 0
	maximum = 0
Injected packet rate average = 0.388478
	minimum = 0.371 (at node 0)
	maximum = 0.402152 (at node 4)
Accepted packet rate average = 0.386953
	minimum = 0.367939 (at node 4)
	maximum = 0.402 (at node 1)
Injected flit rate average = 0.388478
	minimum = 0.371 (at node 0)
	maximum = 0.402152 (at node 4)
Accepted flit rate average= 0.386953
	minimum = 0.367939 (at node 4)
	maximum = 0.402 (at node 1)
Injected packet length average = 1
Accepted packet length average = 1
Total in-flight flits = 462 (462 measured)
====== Peak Queue Occupancy Statistics (Absolute Max) ======
  Overall Max VC Occupancy = 1
  Overall Max Buffer Occupancy = 48
latency change    = 0.480171
throughput change = 0.0444046
Class 0:
Packet latency average = 162.141
	minimum = 8
	maximum = 3787
	95th percentile = 999.5
	99th percentile = 999.5
Network latency average = 44.4305
	minimum = 8
	maximum = 3115
	95th percentile = 173.5
	99th percentile = 612.5
Slowest packet = 91810
Flit latency average = 44.4285
	minimum = 8
	maximum = 3115
	95th percentile = 173.5
	99th percentile = 612.5
Slowest flit = 91810
Fragmentation average = 0
	minimum = 0
	maximum = 0
Injected packet rate average = 0.402552
	minimum = 0.379 (at node 1)
	maximum = 0.419222 (at node 4)
Accepted packet rate average = 0.401167
	minimum = 0.376889 (at node 7)
	maximum = 0.419056 (at node 1)
Injected flit rate average = 0.402552
	minimum = 0.379 (at node 1)
	maximum = 0.419222 (at node 4)
Accepted flit rate average= 0.401167
	minimum = 0.376889 (at node 7)
	maximum = 0.419056 (at node 1)
Injected packet length average = 1
Accepted packet length average = 1
Total in-flight flits = 459 (459 measured)
====== Peak Queue Occupancy Statistics (Absolute Max) ======
  Overall Max VC Occupancy = 1
  Overall Max Buffer Occupancy = 48
latency change    = 0.376898
throughput change = 0.0354312
Class 0:
Packet latency average = 230.455
	minimum = 8
	maximum = 3819
	95th percentile = 999.5
	99th percentile = 999.5
Network latency average = 49.216
	minimum = 8
	maximum = 3115
	95th percentile = 205.5
	99th percentile = 697.5
Slowest packet = 91810
Flit latency average = 49.214
	minimum = 8
	maximum = 3115
	95th percentile = 205.5
	99th percentile = 697.5
Slowest flit = 91810
Fragmentation average = 0
	minimum = 0
	maximum = 0
Injected packet rate average = 0.41437
	minimum = 0.390385 (at node 0)
	maximum = 0.43359 (at node 4)
Accepted packet rate average = 0.4131
	minimum = 0.387205 (at node 4)
	maximum = 0.433436 (at node 1)
Injected flit rate average = 0.41437
	minimum = 0.390385 (at node 0)
	maximum = 0.43359 (at node 4)
Accepted flit rate average= 0.4131
	minimum = 0.387205 (at node 4)
	maximum = 0.433436 (at node 1)
Injected packet length average = 1
Accepted packet length average = 1
Total in-flight flits = 456 (456 measured)
====== Peak Queue Occupancy Statistics (Absolute Max) ======
  Overall Max VC Occupancy = 1
  Overall Max Buffer Occupancy = 48
latency change    = 0.296429
throughput change = 0.0288866
Class 0:
Packet latency average = 306.594
	minimum = 8
	maximum = 4488
	95th percentile = 999.5
	99th percentile = 999.5
Network latency average = 53.0465
	minimum = 8
	maximum = 3115
	95th percentile = 225.5
	99th percentile = 744.5
Slowest packet = 91810
Flit latency average = 53.0444
	minimum = 8
	maximum = 3115
	95th percentile = 225.5
	99th percentile = 744.5
Slowest flit = 91810
Fragmentation average = 0
	minimum = 0
	maximum = 0
Injected packet rate average = 0.424331
	minimum = 0.400071 (at node 0)
	maximum = 0.444833 (at node 4)
Accepted packet rate average = 0.423143
	minimum = 0.3975 (at node 4)
	maximum = 0.444762 (at node 1)
Injected flit rate average = 0.424331
	minimum = 0.400071 (at node 0)
	maximum = 0.444833 (at node 4)
Accepted flit rate average= 0.423143
	minimum = 0.3975 (at node 4)
	maximum = 0.444762 (at node 1)
Injected packet length average = 1
Accepted packet length average = 1
Total in-flight flits = 459 (459 measured)
====== Peak Queue Occupancy Statistics (Absolute Max) ======
  Overall Max VC Occupancy = 1
  Overall Max Buffer Occupancy = 48
latency change    = 0.248339
throughput change = 0.0237346
Class 0:
Packet latency average = 387.022
	minimum = 8
	maximum = 5228
	95th percentile = 999.5
	99th percentile = 999.5
Network latency average = 56.4232
	minimum = 8
	maximum = 3115
	95th percentile = 238.5
	99th percentile = 777.5
Slowest packet = 91810
Flit latency average = 56.4211
	minimum = 8
	maximum = 3115
	95th percentile = 238.5
	99th percentile = 777.5
Slowest flit = 91810
Fragmentation average = 0
	minimum = 0
	maximum = 0
Injected packet rate average = 0.433002
	minimum = 0.403 (at node 1)
	maximum = 0.455044 (at node 4)
Accepted packet rate average = 0.431911
	minimum = 0.401422 (at node 7)
	maximum = 0.454889 (at node 1)
Injected flit rate average = 0.433002
	minimum = 0.403 (at node 1)
	maximum = 0.455044 (at node 4)
Accepted flit rate average= 0.431911
	minimum = 0.401422 (at node 7)
	maximum = 0.454889 (at node 1)
Injected packet length average = 1
Accepted packet length average = 1
Total in-flight flits = 452 (452 measured)
====== Peak Queue Occupancy Statistics (Absolute Max) ======
  Overall Max VC Occupancy = 1
  Overall Max Buffer Occupancy = 48
latency change    = 0.207812
throughput change = 0.0203011
Class 0:
Packet latency average = 470.225
	minimum = 8
	maximum = 5519
	95th percentile = 999.5
	99th percentile = 999.5
Network latency average = 59.1248
	minimum = 8
	maximum = 3115
	95th percentile = 251.5
	99th percentile = 777.5
Slowest packet = 91810
Flit latency average = 59.1228
	minimum = 8
	maximum = 3115
	95th percentile = 251.5
	99th percentile = 777.5
Slowest flit = 91810
Fragmentation average = 0
	minimum = 0
	maximum = 0
Injected packet rate average = 0.440551
	minimum = 0.410396 (at node 0)
	maximum = 0.464167 (at node 7)
Accepted packet rate average = 0.439532
	minimum = 0.407875 (at node 4)
	maximum = 0.464083 (at node 8)
Injected flit rate average = 0.440551
	minimum = 0.410396 (at node 0)
	maximum = 0.464167 (at node 7)
Accepted flit rate average= 0.439532
	minimum = 0.407875 (at node 4)
	maximum = 0.464083 (at node 8)
Injected packet length average = 1
Accepted packet length average = 1
Total in-flight flits = 450 (450 measured)
====== Peak Queue Occupancy Statistics (Absolute Max) ======
  Overall Max VC Occupancy = 1
  Overall Max Buffer Occupancy = 48
latency change    = 0.176942
throughput change = 0.0173396
Class 0:
Packet latency average = 558.762
	minimum = 8
	maximum = 6162
	95th percentile = 999.5
	99th percentile = 999.5
Network latency average = 61.3963
	minimum = 8
	maximum = 3115
	95th percentile = 263.5
	99th percentile = 794.5
Slowest packet = 91810
Flit latency average = 61.3943
	minimum = 8
	maximum = 3115
	95th percentile = 263.5
	99th percentile = 794.5
Slowest flit = 91810
Fragmentation average = 0
	minimum = 0
	maximum = 0
Injected packet rate average = 0.447279
	minimum = 0.417706 (at node 1)
	maximum = 0.471804 (at node 7)
Accepted packet rate average = 0.446312
	minimum = 0.416137 (at node 7)
	maximum = 0.471745 (at node 8)
Injected flit rate average = 0.447279
	minimum = 0.417706 (at node 1)
	maximum = 0.471804 (at node 7)
Accepted flit rate average= 0.446312
	minimum = 0.416137 (at node 7)
	maximum = 0.471745 (at node 8)
Injected packet length average = 1
Accepted packet length average = 1
Total in-flight flits = 454 (454 measured)
====== Peak Queue Occupancy Statistics (Absolute Max) ======
  Overall Max VC Occupancy = 1
  Overall Max Buffer Occupancy = 48
latency change    = 0.158453
throughput change = 0.0151893
Class 0:
Packet latency average = 647.931
	minimum = 8
	maximum = 6862
	95th percentile = 999.5
	99th percentile = 999.5
Network latency average = 63.4886
	minimum = 8
	maximum = 3115
	95th percentile = 272.5
	99th percentile = 807.5
Slowest packet = 91810
Flit latency average = 63.4867
	minimum = 8
	maximum = 3115
	95th percentile = 272.5
	99th percentile = 807.5
Slowest flit = 91810
Fragmentation average = 0
	minimum = 0
	maximum = 0
Injected packet rate average = 0.453204
	minimum = 0.41963 (at node 1)
	maximum = 0.478667 (at node 7)
Accepted packet rate average = 0.452296
	minimum = 0.418556 (at node 7)
	maximum = 0.478556 (at node 8)
Injected flit rate average = 0.453204
	minimum = 0.41963 (at node 1)
	maximum = 0.478667 (at node 7)
Accepted flit rate average= 0.452296
	minimum = 0.418556 (at node 7)
	maximum = 0.478556 (at node 8)
Injected packet length average = 1
Accepted packet length average = 1
Total in-flight flits = 451 (451 measured)
====== Peak Queue Occupancy Statistics (Absolute Max) ======
  Overall Max VC Occupancy = 1
  Overall Max Buffer Occupancy = 48
latency change    = 0.137622
throughput change = 0.0132319
Class 0:
Packet latency average = 736.9
	minimum = 8
	maximum = 6878
	95th percentile = 999.5
	99th percentile = 999.5
Network latency average = 65.1717
	minimum = 8
	maximum = 3115
	95th percentile = 280.5
	99th percentile = 824.5
Slowest packet = 91810
Flit latency average = 65.1699
	minimum = 8
	maximum = 3115
	95th percentile = 280.5
	99th percentile = 824.5
Slowest flit = 91810
Fragmentation average = 0
	minimum = 0
	maximum = 0
Injected packet rate average = 0.458517
	minimum = 0.424 (at node 0)
	maximum = 0.485035 (at node 4)
Accepted packet rate average = 0.457632
	minimum = 0.421807 (at node 4)
	maximum = 0.484965 (at node 1)
Injected flit rate average = 0.458517
	minimum = 0.424 (at node 0)
	maximum = 0.485035 (at node 4)
Accepted flit rate average= 0.457632
	minimum = 0.421807 (at node 4)
	maximum = 0.484965 (at node 1)
Injected packet length average = 1
Accepted packet length average = 1
Total in-flight flits = 464 (464 measured)
====== Peak Queue Occupancy Statistics (Absolute Max) ======
  Overall Max VC Occupancy = 1
  Overall Max Buffer Occupancy = 48
latency change    = 0.120734
throughput change = 0.0116585
Class 0:
Packet latency average = 829.775
	minimum = 8
	maximum = 7734
	95th percentile = 999.5
	99th percentile = 999.5
Network latency average = 66.684
	minimum = 8
	maximum = 3115
	95th percentile = 288.5
	99th percentile = 845.5
Slowest packet = 91810
Flit latency average = 66.6822
	minimum = 8
	maximum = 3115
	95th percentile = 288.5
	99th percentile = 845.5
Slowest flit = 91810
Fragmentation average = 0
	minimum = 0
	maximum = 0
Injected packet rate average = 0.463556
	minimum = 0.42955 (at node 1)
	maximum = 0.491283 (at node 4)
Accepted packet rate average = 0.462737
	minimum = 0.428233 (at node 7)
	maximum = 0.491233 (at node 1)
Injected flit rate average = 0.463556
	minimum = 0.42955 (at node 1)
	maximum = 0.491283 (at node 4)
Accepted flit rate average= 0.462737
	minimum = 0.428233 (at node 7)
	maximum = 0.491233 (at node 1)
Injected packet length average = 1
Accepted packet length average = 1
Total in-flight flits = 452 (452 measured)
====== Peak Queue Occupancy Statistics (Absolute Max) ======
  Overall Max VC Occupancy = 1
  Overall Max Buffer Occupancy = 48
latency change    = 0.111928
throughput change = 0.0110332
Class 0:
Packet latency average = 922.631
	minimum = 8
	maximum = 8416
	95th percentile = 999.5
	99th percentile = 999.5
Network latency average = 68.1258
	minimum = 8
	maximum = 3115
	95th percentile = 296.5
	99th percentile = 853.5
Slowest packet = 91810
Flit latency average = 68.1241
	minimum = 8
	maximum = 3115
	95th percentile = 296.5
	99th percentile = 853.5
Slowest flit = 91810
Fragmentation average = 0
	minimum = 0
	maximum = 0
Injected packet rate average = 0.467935
	minimum = 0.432349 (at node 1)
	maximum = 0.496365 (at node 4)
Accepted packet rate average = 0.467162
	minimum = 0.431476 (at node 7)
	maximum = 0.496286 (at node 1)
Injected flit rate average = 0.467935
	minimum = 0.432349 (at node 1)
	maximum = 0.496365 (at node 4)
Accepted flit rate average= 0.467162
	minimum = 0.431476 (at node 7)
	maximum = 0.496286 (at node 1)
Injected packet length average = 1
Accepted packet length average = 1
Total in-flight flits = 449 (449 measured)
====== Peak Queue Occupancy Statistics (Absolute Max) ======
  Overall Max VC Occupancy = 1
  Overall Max Buffer Occupancy = 48
latency change    = 0.100643
throughput change = 0.00947256
Class 0:
Packet latency average = 1015.29
	minimum = 8
	maximum = 8535
	95th percentile = 999.5
	99th percentile = 999.5
Network latency average = 69.2893
	minimum = 8
	maximum = 3115
	95th percentile = 302.5
	99th percentile = 853.5
Slowest packet = 91810
Flit latency average = 69.2877
	minimum = 8
	maximum = 3115
	95th percentile = 302.5
	99th percentile = 853.5
Slowest flit = 91810
Fragmentation average = 0
	minimum = 0
	maximum = 0
Injected packet rate average = 0.471736
	minimum = 0.433909 (at node 0)
	maximum = 0.501045 (at node 4)
Accepted packet rate average = 0.470992
	minimum = 0.432091 (at node 4)
	maximum = 0.500985 (at node 1)
Injected flit rate average = 0.471736
	minimum = 0.433909 (at node 0)
	maximum = 0.501045 (at node 4)
Accepted flit rate average= 0.470992
	minimum = 0.432091 (at node 4)
	maximum = 0.500985 (at node 1)
Injected packet length average = 1
Accepted packet length average = 1
Total in-flight flits = 452 (452 measured)
====== Peak Queue Occupancy Statistics (Absolute Max) ======
  Overall Max VC Occupancy = 1
  Overall Max Buffer Occupancy = 48
latency change    = 0.091265
throughput change = 0.00813035
Draining all recorded packets ...
Class 0:
Remaining flits: 277233 278202 278304 278433 278546 278676 278693 278922 279153 279396 [...] (453 flits)
Measured flits: 277233 278202 278304 278433 278546 278676 278693 278922 279153 279396 [...] (421 flits)
Class 0:
Remaining flits: 284449 284705 284943 285178 285419 285656 285903 286150 286387 286630 [...] (453 flits)
Measured flits: 284449 284705 284943 285178 285419 285656 285903 286150 286387 286630 [...] (420 flits)
Class 0:
Remaining flits: 289556 289789 290038 290296 290534 290777 291001 291239 291464 291703 [...] (455 flits)
Measured flits: 289556 289789 290038 290296 290534 290777 291001 291239 291464 291703 [...] (424 flits)
Class 0:
Remaining flits: 293840 294151 294461 294688 294790 294925 295229 295425 295478 295623 [...] (460 flits)
Measured flits: 293840 294151 294461 294688 294790 294925 295229 295425 295478 295623 [...] (428 flits)
Class 0:
Remaining flits: 298398 298575 299019 299427 299520 299646 299657 299998 300151 300339 [...] (455 flits)
Measured flits: 298398 298575 299019 299427 299520 299646 299657 299998 300151 300339 [...] (422 flits)
Class 0:
Remaining flits: 303017 303055 303155 303161 303322 303650 303726 305306 306690 306935 [...] (451 flits)
Measured flits: 303017 303055 303155 303161 303322 303650 303726 305306 306690 306935 [...] (417 flits)
Class 0:
Remaining flits: 309596 309836 310074 310318 310559 310799 311038 311281 311510 311754 [...] (456 flits)
Measured flits: 309596 309836 310074 310318 310559 310799 311038 311281 311510 311754 [...] (426 flits)
Class 0:
Remaining flits: 314594 314839 315076 315323 315544 315781 316007 316226 316456 316812 [...] (459 flits)
Measured flits: 314594 314839 315076 315323 315544 315781 316007 316226 316456 316812 [...] (377 flits)
Class 0:
Remaining flits: 317997 318229 318735 319257 319380 319483 319690 319713 319950 320079 [...] (463 flits)
Measured flits: 317997 318229 318735 319257 319380 319483 319690 319713 319950 320079 [...] (108 flits)
Class 0:
Remaining flits: 322778 323022 323650 323840 324326 324394 324582 324779 324803 324892 [...] (457 flits)
Measured flits: 322778 323022 323650 323840 324326 324394 324582 324779 324803 324892 [...] (20 flits)
Draining remaining packets ...
Time taken is 82939 cycles
====== Overall Traffic Statistics ======
====== Traffic class 0 ======
Packet latency average = 1389.18 (1 samples)
	minimum = 8 (1 samples)
	maximum = 10746 (1 samples)
Network latency average = 78.2249 (1 samples)
	minimum = 8 (1 samples)
	maximum = 3115 (1 samples)
Flit latency average = 73.1855 (1 samples)
	minimum = 8 (1 samples)
	maximum = 3115 (1 samples)
Fragmentation average = 0 (1 samples)
	minimum = 0 (1 samples)
	maximum = 0 (1 samples)
Injected packet rate average = 0.471736 (1 samples)
	minimum = 0.433909 (1 samples)
	maximum = 0.501045 (1 samples)
Accepted packet rate average = 0.470992 (1 samples)
	minimum = 0.432091 (1 samples)
	maximum = 0.500985 (1 samples)
Injected flit rate average = 0.471736 (1 samples)
	minimum = 0.433909 (1 samples)
	maximum = 0.501045 (1 samples)
Accepted flit rate average = 0.470992 (1 samples)
	minimum = 0.432091 (1 samples)
	maximum = 0.500985 (1 samples)
Injected packet size average = 1 (1 samples)
Accepted packet size average = 1 (1 samples)
Hops average = 3.00074 (1 samples)
Total run time 28.0545

