BEGIN Configuration File: D:\noc_huawei\noc\booksim2-noc_speedup_study\booksim2-noc_speedup_study\tests\data\results\p3_ramp_to_0p6_hold_current_scheme\tmp_configs\linear_scale_hybrid_xy_racke_s2203.config
num_vcs     = 48;
vc_buf_size = 16;
wait_for_tail_credit = 1;

vc_allocator = islip;
sw_allocator = islip;
alloc_iters  = 16;

credit_delay   = 2;
routing_delay  = 0;
vc_alloc_delay = 1;
sw_alloc_delay = 1;
st_final_delay = 1;

input_speedup     = 1;
output_speedup    = 1;
internal_speedup  = 2.0;

sim_type = latency;
latency_thres  = 100000.0;
sim_count      = 1;
queue_sample_period_cycles = 0;

topology = mesh;
k  = 3;
n  = 2;

hybrid_transition_mode = linear_prob;
hybrid_xy_low_threshold = 0.35;
hybrid_racke_high_threshold = 0.65;
hybrid_buffer_soft_threshold = 0.50;
hybrid_buffer_hard_threshold = 0.85;
hybrid_buffer_release_threshold = 0.35;
hybrid_rate_soft_threshold = 0.55;
hybrid_rate_hard_threshold = 0.90;
hybrid_rate_weight = 0.25;
hybrid_congestion_alpha = 0.25;
hybrid_racke_increase_step = 0.25;
hybrid_racke_decrease_step = 0.10;
hybrid_epoch_cycles = 200;
hybrid_hold_cycles = 600;
hybrid_enable_midflight_override = 1;
hybrid_feedback_delay_per_hop = 1;
hybrid_flow_increase_step = 0.20;
hybrid_flow_decrease_step = 0.08;
hybrid_flow_hard_threshold = 0.95;

packet_size = 1;


ordered_injection_coefficients = {0.1666666667,0.3333333333,0.5};
ordered_injection_phase_cycles = {1000,1000,1000};
ordered_injection_source_order = {4,0,7,2,8,1,5,3,6};
ordered_injection_flow_peak_rate = 0.60;
warmup_periods = 2;
custom_perm_array = {4,7,6,5,1,2,0,8,3};
injection_process = scheduled;
injection_rate = 0.6;
scheduled_default_phase_cycles = 3000;
perm_seed = 2203;
hybrid_flow_hotspot_alpha = 0.85;
hybrid_stats_window_cycles = 3000;
hybrid_flow_hotspot_threshold = 0.8;
sample_period = 3000;
scheduled_injection_rates = {0.05,0.1,0.15,0.2,0.25,0.3,0.35,0.4,0.45,0.5,0.55,0.6,0.6,0.6,0.6,0.6};
traffic = custom_perm;
routing_function = hybrid_xy_racke;
scheduled_phase_cycles = {3000,3000,3000,3000,3000,3000,3000,3000,3000,3000,3000,3000,3000,3000,3000,3000};
seed = 2203;
max_samples = 24;

END Configuration File: D:\noc_huawei\noc\booksim2-noc_speedup_study\booksim2-noc_speedup_study\tests\data\results\p3_ramp_to_0p6_hold_current_scheme\tmp_configs\linear_scale_hybrid_xy_racke_s2203.config
Class 0:
Packet latency average = 10.8444
	minimum = 8
	maximum = 17
	95th percentile = 17.5
	99th percentile = 17.5
Network latency average = 10.8444
	minimum = 8
	maximum = 17
	95th percentile = 17.5
	99th percentile = 17.5
Slowest packet = 16
Flit latency average = 10.8444
	minimum = 8
	maximum = 17
	95th percentile = 17.5
	99th percentile = 17.5
Slowest flit = 16
Fragmentation average = 0
	minimum = 0
	maximum = 0
Injected packet rate average = 0.0513704
	minimum = 0.0443333 (at node 2)
	maximum = 0.0586667 (at node 6)
Accepted packet rate average = 0.0511852
	minimum = 0.044 (at node 6)
	maximum = 0.0586667 (at node 0)
Injected flit rate average = 0.0513704
	minimum = 0.0443333 (at node 2)
	maximum = 0.0586667 (at node 6)
Accepted flit rate average= 0.0511852
	minimum = 0.044 (at node 6)
	maximum = 0.0586667 (at node 0)
Injected packet length average = 1
Accepted packet length average = 1
Total in-flight flits = 5 (0 measured)
====== Peak Queue Occupancy Statistics (Absolute Max) ======
  Overall Max VC Occupancy = 1
  Overall Max Buffer Occupancy = 2
latency change    = 1
throughput change = 1
Class 0:
Packet latency average = 10.954
	minimum = 8
	maximum = 17
	95th percentile = 17.5
	99th percentile = 17.5
Network latency average = 10.954
	minimum = 8
	maximum = 17
	95th percentile = 17.5
	99th percentile = 17.5
Slowest packet = 16
Flit latency average = 10.954
	minimum = 8
	maximum = 17
	95th percentile = 17.5
	99th percentile = 17.5
Slowest flit = 16
Fragmentation average = 0
	minimum = 0
	maximum = 0
Injected packet rate average = 0.0757963
	minimum = 0.0723333 (at node 1)
	maximum = 0.0813333 (at node 5)
Accepted packet rate average = 0.0756481
	minimum = 0.0723333 (at node 7)
	maximum = 0.0811667 (at node 2)
Injected flit rate average = 0.0757963
	minimum = 0.0723333 (at node 1)
	maximum = 0.0813333 (at node 5)
Accepted flit rate average= 0.0756481
	minimum = 0.0723333 (at node 7)
	maximum = 0.0811667 (at node 2)
Injected packet length average = 1
Accepted packet length average = 1
Total in-flight flits = 8 (0 measured)
====== Peak Queue Occupancy Statistics (Absolute Max) ======
  Overall Max VC Occupancy = 1
  Overall Max Buffer Occupancy = 2
latency change    = 0.0100009
throughput change = 0.323378
Warmed up ...Time used is 6000 cycles
Class 0:
Packet latency average = 11.0041
	minimum = 8
	maximum = 17
	95th percentile = 17.5
	99th percentile = 17.5
Network latency average = 11.0041
	minimum = 8
	maximum = 17
	95th percentile = 17.5
	99th percentile = 17.5
Slowest packet = 4094
Flit latency average = 11.0056
	minimum = 8
	maximum = 17
	95th percentile = 17.5
	99th percentile = 17.5
Slowest flit = 4087
Fragmentation average = 0
	minimum = 0
	maximum = 0
Injected packet rate average = 0.153074
	minimum = 0.145333 (at node 1)
	maximum = 0.163333 (at node 5)
Accepted packet rate average = 0.153037
	minimum = 0.144667 (at node 7)
	maximum = 0.163667 (at node 2)
Injected flit rate average = 0.153074
	minimum = 0.145333 (at node 1)
	maximum = 0.163333 (at node 5)
Accepted flit rate average= 0.153037
	minimum = 0.144667 (at node 7)
	maximum = 0.163667 (at node 2)
Injected packet length average = 1
Accepted packet length average = 1
Total in-flight flits = 9 (9 measured)
====== Peak Queue Occupancy Statistics (Absolute Max) ======
  Overall Max VC Occupancy = 1
  Overall Max Buffer Occupancy = 2
latency change    = 0.00455686
throughput change = 0.505687
Class 0:
Packet latency average = 11.0913
	minimum = 8
	maximum = 17
	95th percentile = 17.5
	99th percentile = 17.5
Network latency average = 11.0913
	minimum = 8
	maximum = 17
	95th percentile = 17.5
	99th percentile = 17.5
Slowest packet = 4094
Flit latency average = 11.0918
	minimum = 8
	maximum = 17
	95th percentile = 17.5
	99th percentile = 17.5
Slowest flit = 4087
Fragmentation average = 0
	minimum = 0
	maximum = 0
Injected packet rate average = 0.177148
	minimum = 0.168833 (at node 0)
	maximum = 0.183167 (at node 8)
Accepted packet rate average = 0.177074
	minimum = 0.168833 (at node 4)
	maximum = 0.1835 (at node 3)
Injected flit rate average = 0.177148
	minimum = 0.168833 (at node 0)
	maximum = 0.183167 (at node 8)
Accepted flit rate average= 0.177074
	minimum = 0.168833 (at node 4)
	maximum = 0.1835 (at node 3)
Injected packet length average = 1
Accepted packet length average = 1
Total in-flight flits = 12 (12 measured)
====== Peak Queue Occupancy Statistics (Absolute Max) ======
  Overall Max VC Occupancy = 1
  Overall Max Buffer Occupancy = 2
latency change    = 0.00785739
throughput change = 0.135746
Class 0:
Packet latency average = 11.102
	minimum = 8
	maximum = 17
	95th percentile = 17.5
	99th percentile = 17.5
Network latency average = 11.102
	minimum = 8
	maximum = 17
	95th percentile = 17.5
	99th percentile = 17.5
Slowest packet = 4094
Flit latency average = 11.1023
	minimum = 8
	maximum = 17
	95th percentile = 17.5
	99th percentile = 17.5
Slowest flit = 4087
Fragmentation average = 0
	minimum = 0
	maximum = 0
Injected packet rate average = 0.202395
	minimum = 0.195444 (at node 6)
	maximum = 0.208 (at node 8)
Accepted packet rate average = 0.202198
	minimum = 0.195222 (at node 0)
	maximum = 0.207778 (at node 3)
Injected flit rate average = 0.202395
	minimum = 0.195444 (at node 6)
	maximum = 0.208 (at node 8)
Accepted flit rate average= 0.202198
	minimum = 0.195222 (at node 0)
	maximum = 0.207778 (at node 3)
Injected packet length average = 1
Accepted packet length average = 1
Total in-flight flits = 24 (24 measured)
====== Peak Queue Occupancy Statistics (Absolute Max) ======
  Overall Max VC Occupancy = 1
  Overall Max Buffer Occupancy = 2
latency change    = 0.000967861
throughput change = 0.124252
Class 0:
Packet latency average = 11.1389
	minimum = 8
	maximum = 18
	95th percentile = 17.5
	99th percentile = 17.5
Network latency average = 11.1389
	minimum = 8
	maximum = 18
	95th percentile = 17.5
	99th percentile = 17.5
Slowest packet = 24317
Flit latency average = 11.1391
	minimum = 8
	maximum = 18
	95th percentile = 17.5
	99th percentile = 17.5
Slowest flit = 24317
Fragmentation average = 0
	minimum = 0
	maximum = 0
Injected packet rate average = 0.227157
	minimum = 0.219167 (at node 6)
	maximum = 0.234333 (at node 8)
Accepted packet rate average = 0.226981
	minimum = 0.218917 (at node 0)
	maximum = 0.23425 (at node 3)
Injected flit rate average = 0.227157
	minimum = 0.219167 (at node 6)
	maximum = 0.234333 (at node 8)
Accepted flit rate average= 0.226981
	minimum = 0.218917 (at node 0)
	maximum = 0.23425 (at node 3)
Injected packet length average = 1
Accepted packet length average = 1
Total in-flight flits = 27 (27 measured)
====== Peak Queue Occupancy Statistics (Absolute Max) ======
  Overall Max VC Occupancy = 1
  Overall Max Buffer Occupancy = 2
latency change    = 0.00331537
throughput change = 0.109189
Class 0:
Packet latency average = 11.1702
	minimum = 8
	maximum = 18
	95th percentile = 17.5
	99th percentile = 17.5
Network latency average = 11.1702
	minimum = 8
	maximum = 18
	95th percentile = 17.5
	99th percentile = 17.5
Slowest packet = 24317
Flit latency average = 11.1703
	minimum = 8
	maximum = 18
	95th percentile = 17.5
	99th percentile = 17.5
Slowest flit = 24317
Fragmentation average = 0
	minimum = 0
	maximum = 0
Injected packet rate average = 0.252178
	minimum = 0.2454 (at node 6)
	maximum = 0.259333 (at node 8)
Accepted packet rate average = 0.251948
	minimum = 0.2452 (at node 0)
	maximum = 0.259067 (at node 3)
Injected flit rate average = 0.252178
	minimum = 0.2454 (at node 6)
	maximum = 0.259333 (at node 8)
Accepted flit rate average= 0.251948
	minimum = 0.2452 (at node 0)
	maximum = 0.259067 (at node 3)
Injected packet length average = 1
Accepted packet length average = 1
Total in-flight flits = 39 (39 measured)
====== Peak Queue Occupancy Statistics (Absolute Max) ======
  Overall Max VC Occupancy = 1
  Overall Max Buffer Occupancy = 2
latency change    = 0.00279368
throughput change = 0.0990945
Class 0:
Packet latency average = 11.2645
	minimum = 8
	maximum = 27
	95th percentile = 17.5
	99th percentile = 17.5
Network latency average = 11.2645
	minimum = 8
	maximum = 27
	95th percentile = 17.5
	99th percentile = 17.5
Slowest packet = 42672
Flit latency average = 11.2646
	minimum = 8
	maximum = 27
	95th percentile = 17.5
	99th percentile = 17.5
Slowest flit = 42672
Fragmentation average = 0
	minimum = 0
	maximum = 0
Injected packet rate average = 0.276932
	minimum = 0.273444 (at node 1)
	maximum = 0.283444 (at node 8)
Accepted packet rate average = 0.276704
	minimum = 0.273056 (at node 7)
	maximum = 0.283222 (at node 3)
Injected flit rate average = 0.276932
	minimum = 0.273444 (at node 1)
	maximum = 0.283444 (at node 8)
Accepted flit rate average= 0.276704
	minimum = 0.273056 (at node 7)
	maximum = 0.283222 (at node 3)
Injected packet length average = 1
Accepted packet length average = 1
Total in-flight flits = 45 (45 measured)
====== Peak Queue Occupancy Statistics (Absolute Max) ======
  Overall Max VC Occupancy = 1
  Overall Max Buffer Occupancy = 2
latency change    = 0.00837896
throughput change = 0.0894659
Class 0:
Packet latency average = 11.4132
	minimum = 8
	maximum = 27
	95th percentile = 17.5
	99th percentile = 18.5
Network latency average = 11.4132
	minimum = 8
	maximum = 27
	95th percentile = 17.5
	99th percentile = 18.5
Slowest packet = 42672
Flit latency average = 11.4132
	minimum = 8
	maximum = 27
	95th percentile = 17.5
	99th percentile = 18.5
Slowest flit = 42672
Fragmentation average = 0
	minimum = 0
	maximum = 0
Injected packet rate average = 0.302053
	minimum = 0.294905 (at node 1)
	maximum = 0.30881 (at node 8)
Accepted packet rate average = 0.301831
	minimum = 0.294714 (at node 7)
	maximum = 0.308619 (at node 3)
Injected flit rate average = 0.302053
	minimum = 0.294905 (at node 1)
	maximum = 0.30881 (at node 8)
Accepted flit rate average= 0.301831
	minimum = 0.294714 (at node 7)
	maximum = 0.308619 (at node 3)
Injected packet length average = 1
Accepted packet length average = 1
Total in-flight flits = 50 (50 measured)
====== Peak Queue Occupancy Statistics (Absolute Max) ======
  Overall Max VC Occupancy = 1
  Overall Max Buffer Occupancy = 2
latency change    = 0.0130239
throughput change = 0.0832486
Class 0:
Packet latency average = 12.5081
	minimum = 8
	maximum = 82
	95th percentile = 21.5
	99th percentile = 41.5
Network latency average = 12.5081
	minimum = 8
	maximum = 82
	95th percentile = 21.5
	99th percentile = 41.5
Slowest packet = 74273
Flit latency average = 12.508
	minimum = 8
	maximum = 82
	95th percentile = 21.5
	99th percentile = 41.5
Slowest flit = 74273
Fragmentation average = 0
	minimum = 0
	maximum = 0
Injected packet rate average = 0.32681
	minimum = 0.320917 (at node 1)
	maximum = 0.33275 (at node 8)
Accepted packet rate average = 0.326389
	minimum = 0.319792 (at node 7)
	maximum = 0.33225 (at node 3)
Injected flit rate average = 0.32681
	minimum = 0.320917 (at node 1)
	maximum = 0.33275 (at node 8)
Accepted flit rate average= 0.326389
	minimum = 0.319792 (at node 7)
	maximum = 0.33225 (at node 3)
Injected packet length average = 1
Accepted packet length average = 1
Total in-flight flits = 99 (99 measured)
====== Peak Queue Occupancy Statistics (Absolute Max) ======
  Overall Max VC Occupancy = 1
  Overall Max Buffer Occupancy = 10
latency change    = 0.0875358
throughput change = 0.0752421
Class 0:
Packet latency average = 16.1335
	minimum = 8
	maximum = 340
	95th percentile = 53.5
	99th percentile = 84.5
Network latency average = 16.1331
	minimum = 8
	maximum = 340
	95th percentile = 53.5
	99th percentile = 84.5
Slowest packet = 84789
Flit latency average = 16.1327
	minimum = 8
	maximum = 340
	95th percentile = 53.5
	99th percentile = 84.5
Slowest flit = 84789
Fragmentation average = 0
	minimum = 0
	maximum = 0
Injected packet rate average = 0.351667
	minimum = 0.34763 (at node 1)
	maximum = 0.357926 (at node 8)
Accepted packet rate average = 0.351004
	minimum = 0.346185 (at node 0)
	maximum = 0.357222 (at node 1)
Injected flit rate average = 0.351667
	minimum = 0.34763 (at node 1)
	maximum = 0.357926 (at node 8)
Accepted flit rate average= 0.351004
	minimum = 0.346185 (at node 0)
	maximum = 0.357222 (at node 1)
Injected packet length average = 1
Accepted packet length average = 1
Total in-flight flits = 169 (169 measured)
====== Peak Queue Occupancy Statistics (Absolute Max) ======
  Overall Max VC Occupancy = 1
  Overall Max Buffer Occupancy = 48
latency change    = 0.224712
throughput change = 0.070128
Class 0:
Packet latency average = 19.8846
	minimum = 8
	maximum = 401
	95th percentile = 65.5
	99th percentile = 136.5
Network latency average = 19.8832
	minimum = 8
	maximum = 401
	95th percentile = 65.5
	99th percentile = 136.5
Slowest packet = 90037
Flit latency average = 19.8826
	minimum = 8
	maximum = 401
	95th percentile = 65.5
	99th percentile = 136.5
Slowest flit = 90037
Fragmentation average = 0
	minimum = 0
	maximum = 0
Injected packet rate average = 0.376763
	minimum = 0.3731 (at node 6)
	maximum = 0.3827 (at node 4)
Accepted packet rate average = 0.375889
	minimum = 0.371767 (at node 7)
	maximum = 0.382533 (at node 1)
Injected flit rate average = 0.376763
	minimum = 0.3731 (at node 6)
	maximum = 0.3827 (at node 4)
Accepted flit rate average= 0.375889
	minimum = 0.371767 (at node 7)
	maximum = 0.382533 (at node 1)
Injected packet length average = 1
Accepted packet length average = 1
Total in-flight flits = 244 (244 measured)
====== Peak Queue Occupancy Statistics (Absolute Max) ======
  Overall Max VC Occupancy = 1
  Overall Max Buffer Occupancy = 48
latency change    = 0.188646
throughput change = 0.0662025
Class 0:
Packet latency average = 22.784
	minimum = 8
	maximum = 652
	95th percentile = 77.5
	99th percentile = 160.5
Network latency average = 22.7828
	minimum = 8
	maximum = 652
	95th percentile = 77.5
	99th percentile = 160.5
Slowest packet = 103930
Flit latency average = 22.782
	minimum = 8
	maximum = 652
	95th percentile = 77.5
	99th percentile = 160.5
Slowest flit = 103930
Fragmentation average = 0
	minimum = 0
	maximum = 0
Injected packet rate average = 0.397414
	minimum = 0.393879 (at node 6)
	maximum = 0.403273 (at node 4)
Accepted packet rate average = 0.39662
	minimum = 0.392 (at node 0)
	maximum = 0.403091 (at node 1)
Injected flit rate average = 0.397414
	minimum = 0.393879 (at node 6)
	maximum = 0.403273 (at node 4)
Accepted flit rate average= 0.39662
	minimum = 0.392 (at node 0)
	maximum = 0.403091 (at node 1)
Injected packet length average = 1
Accepted packet length average = 1
Total in-flight flits = 244 (244 measured)
====== Peak Queue Occupancy Statistics (Absolute Max) ======
  Overall Max VC Occupancy = 1
  Overall Max Buffer Occupancy = 48
latency change    = 0.127256
throughput change = 0.0522683
Class 0:
Packet latency average = 25.0092
	minimum = 8
	maximum = 652
	95th percentile = 87.5
	99th percentile = 177.5
Network latency average = 25.005
	minimum = 8
	maximum = 652
	95th percentile = 87.5
	99th percentile = 177.5
Slowest packet = 103930
Flit latency average = 25.0042
	minimum = 8
	maximum = 652
	95th percentile = 87.5
	99th percentile = 177.5
Slowest flit = 103930
Fragmentation average = 0
	minimum = 0
	maximum = 0
Injected packet rate average = 0.414247
	minimum = 0.41225 (at node 3)
	maximum = 0.420194 (at node 4)
Accepted packet rate average = 0.413636
	minimum = 0.410667 (at node 7)
	maximum = 0.420056 (at node 1)
Injected flit rate average = 0.414247
	minimum = 0.41225 (at node 3)
	maximum = 0.420194 (at node 4)
Accepted flit rate average= 0.413636
	minimum = 0.410667 (at node 7)
	maximum = 0.420056 (at node 1)
Injected packet length average = 1
Accepted packet length average = 1
Total in-flight flits = 206 (206 measured)
====== Peak Queue Occupancy Statistics (Absolute Max) ======
  Overall Max VC Occupancy = 1
  Overall Max Buffer Occupancy = 48
latency change    = 0.0889749
throughput change = 0.0411383
Class 0:
Packet latency average = 26.6603
	minimum = 8
	maximum = 652
	95th percentile = 95.5
	99th percentile = 184.5
Network latency average = 26.6541
	minimum = 8
	maximum = 652
	95th percentile = 95.5
	99th percentile = 184.5
Slowest packet = 103930
Flit latency average = 26.6533
	minimum = 8
	maximum = 652
	95th percentile = 95.5
	99th percentile = 184.5
Slowest flit = 103930
Fragmentation average = 0
	minimum = 0
	maximum = 0
Injected packet rate average = 0.428527
	minimum = 0.425385 (at node 3)
	maximum = 0.434487 (at node 4)
Accepted packet rate average = 0.428057
	minimum = 0.425077 (at node 7)
	maximum = 0.434359 (at node 1)
Injected flit rate average = 0.428527
	minimum = 0.425385 (at node 3)
	maximum = 0.434487 (at node 4)
Accepted flit rate average= 0.428057
	minimum = 0.425077 (at node 7)
	maximum = 0.434359 (at node 1)
Injected packet length average = 1
Accepted packet length average = 1
Total in-flight flits = 173 (173 measured)
====== Peak Queue Occupancy Statistics (Absolute Max) ======
  Overall Max VC Occupancy = 1
  Overall Max Buffer Occupancy = 48
latency change    = 0.0619302
throughput change = 0.0336899
Class 0:
Packet latency average = 28.076
	minimum = 8
	maximum = 652
	95th percentile = 101.5
	99th percentile = 193.5
Network latency average = 28.0475
	minimum = 8
	maximum = 652
	95th percentile = 101.5
	99th percentile = 193.5
Slowest packet = 103930
Flit latency average = 28.0467
	minimum = 8
	maximum = 652
	95th percentile = 101.5
	99th percentile = 193.5
Slowest flit = 103930
Fragmentation average = 0
	minimum = 0
	maximum = 0
Injected packet rate average = 0.441053
	minimum = 0.437286 (at node 3)
	maximum = 0.446333 (at node 4)
Accepted packet rate average = 0.44045
	minimum = 0.436619 (at node 7)
	maximum = 0.446167 (at node 1)
Injected flit rate average = 0.441053
	minimum = 0.437286 (at node 3)
	maximum = 0.446333 (at node 4)
Accepted flit rate average= 0.44045
	minimum = 0.436619 (at node 7)
	maximum = 0.446167 (at node 1)
Injected packet length average = 1
Accepted packet length average = 1
Total in-flight flits = 236 (236 measured)
====== Peak Queue Occupancy Statistics (Absolute Max) ======
  Overall Max VC Occupancy = 1
  Overall Max Buffer Occupancy = 48
latency change    = 0.0504219
throughput change = 0.0281366
Class 0:
Packet latency average = 29.2477
	minimum = 8
	maximum = 652
	95th percentile = 105.5
	99th percentile = 203.5
Network latency average = 29.2012
	minimum = 8
	maximum = 652
	95th percentile = 105.5
	99th percentile = 203.5
Slowest packet = 103930
Flit latency average = 29.2004
	minimum = 8
	maximum = 652
	95th percentile = 105.5
	99th percentile = 203.5
Slowest flit = 103930
Fragmentation average = 0
	minimum = 0
	maximum = 0
Injected packet rate average = 0.451548
	minimum = 0.447244 (at node 3)
	maximum = 0.456067 (at node 4)
Accepted packet rate average = 0.451072
	minimum = 0.447133 (at node 5)
	maximum = 0.455933 (at node 1)
Injected flit rate average = 0.451548
	minimum = 0.447244 (at node 3)
	maximum = 0.456067 (at node 4)
Accepted flit rate average= 0.451072
	minimum = 0.447133 (at node 5)
	maximum = 0.455933 (at node 1)
Injected packet length average = 1
Accepted packet length average = 1
Total in-flight flits = 201 (201 measured)
====== Peak Queue Occupancy Statistics (Absolute Max) ======
  Overall Max VC Occupancy = 1
  Overall Max Buffer Occupancy = 48
latency change    = 0.0400612
throughput change = 0.0235481
Class 0:
Packet latency average = 30.2075
	minimum = 8
	maximum = 736
	95th percentile = 109.5
	99th percentile = 208.5
Network latency average = 30.1639
	minimum = 8
	maximum = 736
	95th percentile = 109.5
	99th percentile = 208.5
Slowest packet = 183288
Flit latency average = 30.1632
	minimum = 8
	maximum = 736
	95th percentile = 109.5
	99th percentile = 208.5
Slowest flit = 183288
Fragmentation average = 0
	minimum = 0
	maximum = 0
Injected packet rate average = 0.460977
	minimum = 0.456958 (at node 3)
	maximum = 0.465125 (at node 4)
Accepted packet rate average = 0.460505
	minimum = 0.456854 (at node 5)
	maximum = 0.465 (at node 1)
Injected flit rate average = 0.460977
	minimum = 0.456958 (at node 3)
	maximum = 0.465125 (at node 4)
Accepted flit rate average= 0.460505
	minimum = 0.456854 (at node 5)
	maximum = 0.465 (at node 1)
Injected packet length average = 1
Accepted packet length average = 1
Total in-flight flits = 212 (212 measured)
====== Peak Queue Occupancy Statistics (Absolute Max) ======
  Overall Max VC Occupancy = 1
  Overall Max Buffer Occupancy = 48
latency change    = 0.0317758
throughput change = 0.0204841
Class 0:
Packet latency average = 30.9502
	minimum = 8
	maximum = 736
	95th percentile = 112.5
	99th percentile = 210.5
Network latency average = 30.9084
	minimum = 8
	maximum = 736
	95th percentile = 112.5
	99th percentile = 210.5
Slowest packet = 183288
Flit latency average = 30.9076
	minimum = 8
	maximum = 736
	95th percentile = 112.5
	99th percentile = 210.5
Slowest flit = 183288
Fragmentation average = 0
	minimum = 0
	maximum = 0
Injected packet rate average = 0.468871
	minimum = 0.464922 (at node 3)
	maximum = 0.472765 (at node 4)
Accepted packet rate average = 0.468388
	minimum = 0.464784 (at node 5)
	maximum = 0.472706 (at node 1)
Injected flit rate average = 0.468871
	minimum = 0.464922 (at node 3)
	maximum = 0.472765 (at node 4)
Accepted flit rate average= 0.468388
	minimum = 0.464784 (at node 5)
	maximum = 0.472706 (at node 1)
Injected packet length average = 1
Accepted packet length average = 1
Total in-flight flits = 230 (230 measured)
====== Peak Queue Occupancy Statistics (Absolute Max) ======
  Overall Max VC Occupancy = 1
  Overall Max Buffer Occupancy = 48
latency change    = 0.0239963
throughput change = 0.0168304
Draining all recorded packets ...
Draining remaining packets ...
Time taken is 57427 cycles
====== Overall Traffic Statistics ======
====== Traffic class 0 ======
Packet latency average = 31.0562 (1 samples)
	minimum = 8 (1 samples)
	maximum = 736 (1 samples)
Network latency average = 31.0142 (1 samples)
	minimum = 8 (1 samples)
	maximum = 736 (1 samples)
Flit latency average = 31.0945 (1 samples)
	minimum = 8 (1 samples)
	maximum = 736 (1 samples)
Fragmentation average = 0 (1 samples)
	minimum = 0 (1 samples)
	maximum = 0 (1 samples)
Injected packet rate average = 0.468871 (1 samples)
	minimum = 0.464922 (1 samples)
	maximum = 0.472765 (1 samples)
Accepted packet rate average = 0.468388 (1 samples)
	minimum = 0.464784 (1 samples)
	maximum = 0.472706 (1 samples)
Injected flit rate average = 0.468871 (1 samples)
	minimum = 0.464922 (1 samples)
	maximum = 0.472765 (1 samples)
Accepted flit rate average = 0.468388 (1 samples)
	minimum = 0.464784 (1 samples)
	maximum = 0.472706 (1 samples)
Injected packet size average = 1 (1 samples)
Accepted packet size average = 1 (1 samples)
Hops average = 3.08923 (1 samples)
Total run time 10.7899
====== Hybrid Routing Split Statistics ======
XY packets = 184776
Racke packets = 36143
XY fraction = 0.836397
Racke fraction = 0.163603
Flow (0 -> 4) alpha=0.283578 xy_packets=18192 racke_packets=6261 racke_fraction=0.256042
Flow (1 -> 7) alpha=0.283578 xy_packets=18125 racke_packets=6331 racke_fraction=0.258873
Flow (2 -> 6) alpha=0.45291 xy_packets=17667 racke_packets=6879 racke_fraction=0.280249
Flow (3 -> 5) alpha=0 xy_packets=24340 racke_packets=0 racke_fraction=0
Flow (4 -> 1) alpha=0.283578 xy_packets=18473 racke_packets=6267 racke_fraction=0.253314
Flow (5 -> 2) alpha=0 xy_packets=24609 racke_packets=0 racke_fraction=0
Flow (6 -> 0) alpha=0.452449 xy_packets=19284 racke_packets=5257 racke_fraction=0.214213
Flow (7 -> 8) alpha=0 xy_packets=24581 racke_packets=0 racke_fraction=0
Flow (8 -> 3) alpha=0.453455 xy_packets=19505 racke_packets=5148 racke_fraction=0.208818
====== Hybrid Routing Window Statistics ======
Window [0,3000) xy_packets=1387 racke_packets=0 xy_fraction=1
Window [3000,6000) xy_packets=2706 racke_packets=0 xy_fraction=1
Window [6000,9000) xy_packets=4133 racke_packets=0 xy_fraction=1
Window [9000,12000) xy_packets=5433 racke_packets=0 xy_fraction=1
Window [12000,15000) xy_packets=6828 racke_packets=0 xy_fraction=1
Window [15000,18000) xy_packets=8139 racke_packets=0 xy_fraction=1
Window [18000,21000) xy_packets=9511 racke_packets=0 xy_fraction=1
Window [21000,24000) xy_packets=10819 racke_packets=0 xy_fraction=1
Window [24000,27000) xy_packets=12225 racke_packets=0 xy_fraction=1
Window [27000,30000) xy_packets=13395 racke_packets=108 xy_fraction=0.992002
Window [30000,33000) xy_packets=12841 racke_packets=2023 xy_fraction=0.863899
Window [33000,36000) xy_packets=12459 racke_packets=3812 xy_fraction=0.765718
Window [36000,39000) xy_packets=11817 racke_packets=4489 xy_fraction=0.724703
Window [39000,42000) xy_packets=11950 racke_packets=4234 xy_fraction=0.738384
Window [42000,45000) xy_packets=11971 racke_packets=4226 xy_fraction=0.739087
Window [45000,48000) xy_packets=12118 racke_packets=4187 xy_fraction=0.743208
Window [48000,51000) xy_packets=11657 racke_packets=4502 xy_fraction=0.721394
Window [51000,54000) xy_packets=11951 racke_packets=4314 xy_fraction=0.734768
Window [54000,57000) xy_packets=12250 racke_packets=3820 xy_fraction=0.76229
Window [57000,60000) xy_packets=1186 racke_packets=428 xy_fraction=0.73482

