BEGIN Configuration File: D:\noc_huawei\noc\booksim2-noc_speedup_study\booksim2-noc_speedup_study\tests\data\results\p3_ramp_to_0p6_hold_current_scheme\tmp_configs\linear_scale_dim_order_s2201.config
num_vcs     = 48;
vc_buf_size = 16;
wait_for_tail_credit = 1;

vc_allocator = islip;
sw_allocator = islip;
alloc_iters  = 16;

credit_delay   = 2;
routing_delay  = 0;
vc_alloc_delay = 1;
sw_alloc_delay = 1;
st_final_delay = 1;

input_speedup     = 1;
output_speedup    = 1;
internal_speedup  = 2.0;

sim_type = latency;
latency_thres  = 100000.0;
sim_count      = 1;
queue_sample_period_cycles = 0;

topology = mesh;
k  = 3;
n  = 2;

hybrid_transition_mode = linear_prob;
hybrid_xy_low_threshold = 0.35;
hybrid_racke_high_threshold = 0.65;
hybrid_buffer_soft_threshold = 0.50;
hybrid_buffer_hard_threshold = 0.85;
hybrid_buffer_release_threshold = 0.35;
hybrid_rate_soft_threshold = 0.55;
hybrid_rate_hard_threshold = 0.90;
hybrid_rate_weight = 0.25;
hybrid_congestion_alpha = 0.25;
hybrid_racke_increase_step = 0.25;
hybrid_racke_decrease_step = 0.10;
hybrid_epoch_cycles = 200;
hybrid_hold_cycles = 600;
hybrid_enable_midflight_override = 1;
hybrid_feedback_delay_per_hop = 1;
hybrid_flow_increase_step = 0.20;
hybrid_flow_decrease_step = 0.08;
hybrid_flow_hard_threshold = 0.95;

packet_size = 1;


ordered_injection_coefficients = {0.1666666667,0.3333333333,0.5};
ordered_injection_phase_cycles = {1000,1000,1000};
ordered_injection_source_order = {4,0,7,2,8,1,5,3,6};
ordered_injection_flow_peak_rate = 0.60;
warmup_periods = 2;
custom_perm_array = {4,7,6,5,1,2,0,8,3};
injection_process = scheduled;
injection_rate = 0.6;
scheduled_default_phase_cycles = 3000;
perm_seed = 2201;
hybrid_flow_hotspot_alpha = 0.85;
hybrid_stats_window_cycles = 3000;
hybrid_flow_hotspot_threshold = 0.8;
sample_period = 3000;
scheduled_injection_rates = {0.05,0.1,0.15,0.2,0.25,0.3,0.35,0.4,0.45,0.5,0.55,0.6,0.6,0.6,0.6,0.6};
traffic = custom_perm;
routing_function = dim_order;
scheduled_phase_cycles = {3000,3000,3000,3000,3000,3000,3000,3000,3000,3000,3000,3000,3000,3000,3000,3000};
seed = 2201;
max_samples = 24;

END Configuration File: D:\noc_huawei\noc\booksim2-noc_speedup_study\booksim2-noc_speedup_study\tests\data\results\p3_ramp_to_0p6_hold_current_scheme\tmp_configs\linear_scale_dim_order_s2201.config
Class 0:
Packet latency average = 11.0238
	minimum = 8
	maximum = 17
	95th percentile = 17.5
	99th percentile = 17.5
Network latency average = 11.0238
	minimum = 8
	maximum = 17
	95th percentile = 17.5
	99th percentile = 17.5
Slowest packet = 0
Flit latency average = 11.0238
	minimum = 8
	maximum = 17
	95th percentile = 17.5
	99th percentile = 17.5
Slowest flit = 0
Fragmentation average = 0
	minimum = 0
	maximum = 0
Injected packet rate average = 0.0482963
	minimum = 0.044 (at node 4)
	maximum = 0.054 (at node 6)
Accepted packet rate average = 0.0481852
	minimum = 0.0436667 (at node 1)
	maximum = 0.054 (at node 0)
Injected flit rate average = 0.0482963
	minimum = 0.044 (at node 4)
	maximum = 0.054 (at node 6)
Accepted flit rate average= 0.0481852
	minimum = 0.0436667 (at node 1)
	maximum = 0.054 (at node 0)
Injected packet length average = 1
Accepted packet length average = 1
Total in-flight flits = 3 (0 measured)
====== Peak Queue Occupancy Statistics (Absolute Max) ======
  Overall Max VC Occupancy = 1
  Overall Max Buffer Occupancy = 2
latency change    = 1
throughput change = 1
Class 0:
Packet latency average = 11.068
	minimum = 8
	maximum = 17
	95th percentile = 17.5
	99th percentile = 17.5
Network latency average = 11.068
	minimum = 8
	maximum = 17
	95th percentile = 17.5
	99th percentile = 17.5
Slowest packet = 0
Flit latency average = 11.068
	minimum = 8
	maximum = 17
	95th percentile = 17.5
	99th percentile = 17.5
Slowest flit = 0
Fragmentation average = 0
	minimum = 0
	maximum = 0
Injected packet rate average = 0.0745926
	minimum = 0.069 (at node 8)
	maximum = 0.0791667 (at node 1)
Accepted packet rate average = 0.0742963
	minimum = 0.0688333 (at node 3)
	maximum = 0.0788333 (at node 7)
Injected flit rate average = 0.0745926
	minimum = 0.069 (at node 8)
	maximum = 0.0791667 (at node 1)
Accepted flit rate average= 0.0742963
	minimum = 0.0688333 (at node 3)
	maximum = 0.0788333 (at node 7)
Injected packet length average = 1
Accepted packet length average = 1
Total in-flight flits = 16 (0 measured)
====== Peak Queue Occupancy Statistics (Absolute Max) ======
  Overall Max VC Occupancy = 1
  Overall Max Buffer Occupancy = 2
latency change    = 0.00399511
throughput change = 0.351446
Warmed up ...Time used is 6000 cycles
Class 0:
Packet latency average = 11.0235
	minimum = 8
	maximum = 17
	95th percentile = 17.5
	99th percentile = 17.5
Network latency average = 11.0235
	minimum = 8
	maximum = 17
	95th percentile = 17.5
	99th percentile = 17.5
Slowest packet = 4034
Flit latency average = 11.0239
	minimum = 8
	maximum = 17
	95th percentile = 17.5
	99th percentile = 17.5
Slowest flit = 4010
Fragmentation average = 0
	minimum = 0
	maximum = 0
Injected packet rate average = 0.148667
	minimum = 0.134333 (at node 1)
	maximum = 0.155 (at node 8)
Accepted packet rate average = 0.148667
	minimum = 0.134667 (at node 7)
	maximum = 0.155 (at node 3)
Injected flit rate average = 0.148667
	minimum = 0.134333 (at node 1)
	maximum = 0.155 (at node 8)
Accepted flit rate average= 0.148667
	minimum = 0.134667 (at node 7)
	maximum = 0.155 (at node 3)
Injected packet length average = 1
Accepted packet length average = 1
Total in-flight flits = 16 (16 measured)
====== Peak Queue Occupancy Statistics (Absolute Max) ======
  Overall Max VC Occupancy = 1
  Overall Max Buffer Occupancy = 2
latency change    = 0.00403992
throughput change = 0.500249
Class 0:
Packet latency average = 11.0756
	minimum = 8
	maximum = 17
	95th percentile = 17.5
	99th percentile = 17.5
Network latency average = 11.0756
	minimum = 8
	maximum = 17
	95th percentile = 17.5
	99th percentile = 17.5
Slowest packet = 4034
Flit latency average = 11.0757
	minimum = 8
	maximum = 17
	95th percentile = 17.5
	99th percentile = 17.5
Slowest flit = 4010
Fragmentation average = 0
	minimum = 0
	maximum = 0
Injected packet rate average = 0.173815
	minimum = 0.167667 (at node 1)
	maximum = 0.1795 (at node 2)
Accepted packet rate average = 0.173741
	minimum = 0.1675 (at node 7)
	maximum = 0.179167 (at node 6)
Injected flit rate average = 0.173815
	minimum = 0.167667 (at node 1)
	maximum = 0.1795 (at node 2)
Accepted flit rate average= 0.173741
	minimum = 0.1675 (at node 7)
	maximum = 0.179167 (at node 6)
Injected packet length average = 1
Accepted packet length average = 1
Total in-flight flits = 20 (20 measured)
====== Peak Queue Occupancy Statistics (Absolute Max) ======
  Overall Max VC Occupancy = 1
  Overall Max Buffer Occupancy = 2
latency change    = 0.0047023
throughput change = 0.144319
Class 0:
Packet latency average = 11.0788
	minimum = 8
	maximum = 19
	95th percentile = 17.5
	99th percentile = 17.5
Network latency average = 11.0788
	minimum = 8
	maximum = 19
	95th percentile = 17.5
	99th percentile = 17.5
Slowest packet = 16770
Flit latency average = 11.0789
	minimum = 8
	maximum = 19
	95th percentile = 17.5
	99th percentile = 17.5
Slowest flit = 16770
Fragmentation average = 0
	minimum = 0
	maximum = 0
Injected packet rate average = 0.198556
	minimum = 0.196 (at node 1)
	maximum = 0.205667 (at node 7)
Accepted packet rate average = 0.198333
	minimum = 0.195667 (at node 3)
	maximum = 0.205333 (at node 8)
Injected flit rate average = 0.198556
	minimum = 0.196 (at node 1)
	maximum = 0.205667 (at node 7)
Accepted flit rate average= 0.198333
	minimum = 0.195667 (at node 3)
	maximum = 0.205333 (at node 8)
Injected packet length average = 1
Accepted packet length average = 1
Total in-flight flits = 34 (34 measured)
====== Peak Queue Occupancy Statistics (Absolute Max) ======
  Overall Max VC Occupancy = 1
  Overall Max Buffer Occupancy = 2
latency change    = 0.000291416
throughput change = 0.123996
Class 0:
Packet latency average = 11.1079
	minimum = 8
	maximum = 19
	95th percentile = 17.5
	99th percentile = 17.5
Network latency average = 11.1079
	minimum = 8
	maximum = 19
	95th percentile = 17.5
	99th percentile = 17.5
Slowest packet = 16770
Flit latency average = 11.1079
	minimum = 8
	maximum = 19
	95th percentile = 17.5
	99th percentile = 17.5
Slowest flit = 16770
Fragmentation average = 0
	minimum = 0
	maximum = 0
Injected packet rate average = 0.225056
	minimum = 0.223083 (at node 6)
	maximum = 0.229167 (at node 7)
Accepted packet rate average = 0.224954
	minimum = 0.223083 (at node 0)
	maximum = 0.228917 (at node 8)
Injected flit rate average = 0.225056
	minimum = 0.223083 (at node 6)
	maximum = 0.229167 (at node 7)
Accepted flit rate average= 0.224954
	minimum = 0.223083 (at node 0)
	maximum = 0.228917 (at node 8)
Injected packet length average = 1
Accepted packet length average = 1
Total in-flight flits = 27 (27 measured)
====== Peak Queue Occupancy Statistics (Absolute Max) ======
  Overall Max VC Occupancy = 1
  Overall Max Buffer Occupancy = 2
latency change    = 0.00261895
throughput change = 0.118337
Class 0:
Packet latency average = 11.1399
	minimum = 8
	maximum = 19
	95th percentile = 17.5
	99th percentile = 17.5
Network latency average = 11.1399
	minimum = 8
	maximum = 19
	95th percentile = 17.5
	99th percentile = 17.5
Slowest packet = 16770
Flit latency average = 11.1398
	minimum = 8
	maximum = 19
	95th percentile = 17.5
	99th percentile = 17.5
Slowest flit = 16770
Fragmentation average = 0
	minimum = 0
	maximum = 0
Injected packet rate average = 0.250067
	minimum = 0.244467 (at node 6)
	maximum = 0.255133 (at node 7)
Accepted packet rate average = 0.249904
	minimum = 0.244267 (at node 0)
	maximum = 0.255067 (at node 8)
Injected flit rate average = 0.250067
	minimum = 0.244467 (at node 6)
	maximum = 0.255133 (at node 7)
Accepted flit rate average= 0.249904
	minimum = 0.244267 (at node 0)
	maximum = 0.255067 (at node 8)
Injected packet length average = 1
Accepted packet length average = 1
Total in-flight flits = 38 (38 measured)
====== Peak Queue Occupancy Statistics (Absolute Max) ======
  Overall Max VC Occupancy = 1
  Overall Max Buffer Occupancy = 2
latency change    = 0.0028673
throughput change = 0.0998385
Class 0:
Packet latency average = 11.2196
	minimum = 8
	maximum = 21
	95th percentile = 17.5
	99th percentile = 17.5
Network latency average = 11.2196
	minimum = 8
	maximum = 21
	95th percentile = 17.5
	99th percentile = 17.5
Slowest packet = 41181
Flit latency average = 11.2195
	minimum = 8
	maximum = 21
	95th percentile = 17.5
	99th percentile = 17.5
Slowest flit = 41181
Fragmentation average = 0
	minimum = 0
	maximum = 0
Injected packet rate average = 0.275395
	minimum = 0.270167 (at node 6)
	maximum = 0.279444 (at node 7)
Accepted packet rate average = 0.275198
	minimum = 0.27 (at node 0)
	maximum = 0.279222 (at node 8)
Injected flit rate average = 0.275395
	minimum = 0.270167 (at node 6)
	maximum = 0.279444 (at node 7)
Accepted flit rate average= 0.275198
	minimum = 0.27 (at node 0)
	maximum = 0.279222 (at node 8)
Injected packet length average = 1
Accepted packet length average = 1
Total in-flight flits = 48 (48 measured)
====== Peak Queue Occupancy Statistics (Absolute Max) ======
  Overall Max VC Occupancy = 1
  Overall Max Buffer Occupancy = 2
latency change    = 0.00710442
throughput change = 0.0919115
Class 0:
Packet latency average = 11.42
	minimum = 8
	maximum = 32
	95th percentile = 17.5
	99th percentile = 18.5
Network latency average = 11.42
	minimum = 8
	maximum = 32
	95th percentile = 17.5
	99th percentile = 18.5
Slowest packet = 53809
Flit latency average = 11.4199
	minimum = 8
	maximum = 32
	95th percentile = 17.5
	99th percentile = 18.5
Slowest flit = 53809
Fragmentation average = 0
	minimum = 0
	maximum = 0
Injected packet rate average = 0.300259
	minimum = 0.298476 (at node 6)
	maximum = 0.303571 (at node 7)
Accepted packet rate average = 0.300101
	minimum = 0.298286 (at node 3)
	maximum = 0.303381 (at node 8)
Injected flit rate average = 0.300259
	minimum = 0.298476 (at node 6)
	maximum = 0.303571 (at node 7)
Accepted flit rate average= 0.300101
	minimum = 0.298286 (at node 3)
	maximum = 0.303381 (at node 8)
Injected packet length average = 1
Accepted packet length average = 1
Total in-flight flits = 46 (46 measured)
====== Peak Queue Occupancy Statistics (Absolute Max) ======
  Overall Max VC Occupancy = 1
  Overall Max Buffer Occupancy = 2
latency change    = 0.0175511
throughput change = 0.0829822
Class 0:
Packet latency average = 14.2838
	minimum = 8
	maximum = 200
	95th percentile = 38.5
	99th percentile = 74.5
Network latency average = 14.2838
	minimum = 8
	maximum = 200
	95th percentile = 38.5
	99th percentile = 74.5
Slowest packet = 73242
Flit latency average = 14.2831
	minimum = 8
	maximum = 200
	95th percentile = 38.5
	99th percentile = 74.5
Slowest flit = 73242
Fragmentation average = 0
	minimum = 0
	maximum = 0
Injected packet rate average = 0.325829
	minimum = 0.322833 (at node 4)
	maximum = 0.330417 (at node 2)
Accepted packet rate average = 0.324986
	minimum = 0.322708 (at node 1)
	maximum = 0.330083 (at node 6)
Injected flit rate average = 0.325829
	minimum = 0.322833 (at node 4)
	maximum = 0.330417 (at node 2)
Accepted flit rate average= 0.324986
	minimum = 0.322708 (at node 1)
	maximum = 0.330083 (at node 6)
Injected packet length average = 1
Accepted packet length average = 1
Total in-flight flits = 198 (198 measured)
====== Peak Queue Occupancy Statistics (Absolute Max) ======
  Overall Max VC Occupancy = 1
  Overall Max Buffer Occupancy = 38
latency change    = 0.200492
throughput change = 0.0765743
Class 0:
Packet latency average = 26.0474
	minimum = 8
	maximum = 1571
	95th percentile = 90.5
	99th percentile = 335.5
Network latency average = 23.2752
	minimum = 8
	maximum = 1571
	95th percentile = 71.5
	99th percentile = 264.5
Slowest packet = 79630
Flit latency average = 23.2729
	minimum = 8
	maximum = 1571
	95th percentile = 71.5
	99th percentile = 264.5
Slowest flit = 79630
Fragmentation average = 0
	minimum = 0
	maximum = 0
Injected packet rate average = 0.348815
	minimum = 0.341148 (at node 6)
	maximum = 0.353926 (at node 2)
Accepted packet rate average = 0.347465
	minimum = 0.338222 (at node 0)
	maximum = 0.353667 (at node 6)
Injected flit rate average = 0.348815
	minimum = 0.341148 (at node 6)
	maximum = 0.353926 (at node 2)
Accepted flit rate average= 0.347465
	minimum = 0.338222 (at node 0)
	maximum = 0.353667 (at node 6)
Injected packet length average = 1
Accepted packet length average = 1
Total in-flight flits = 346 (346 measured)
====== Peak Queue Occupancy Statistics (Absolute Max) ======
  Overall Max VC Occupancy = 1
  Overall Max Buffer Occupancy = 48
latency change    = 0.451624
throughput change = 0.064694
Class 0:
Packet latency average = 57.4
	minimum = 8
	maximum = 2500
	95th percentile = 347.5
	99th percentile = 983.5
Network latency average = 32.9434
	minimum = 8
	maximum = 2371
	95th percentile = 108.5
	99th percentile = 422.5
Slowest packet = 91607
Flit latency average = 32.9399
	minimum = 8
	maximum = 2371
	95th percentile = 108.5
	99th percentile = 421.5
Slowest flit = 91607
Fragmentation average = 0
	minimum = 0
	maximum = 0
Injected packet rate average = 0.369807
	minimum = 0.359267 (at node 8)
	maximum = 0.379067 (at node 2)
Accepted packet rate average = 0.368193
	minimum = 0.3536 (at node 3)
	maximum = 0.378767 (at node 6)
Injected flit rate average = 0.369807
	minimum = 0.359267 (at node 8)
	maximum = 0.379067 (at node 2)
Accepted flit rate average= 0.368193
	minimum = 0.3536 (at node 3)
	maximum = 0.378767 (at node 6)
Injected packet length average = 1
Accepted packet length average = 1
Total in-flight flits = 454 (454 measured)
====== Peak Queue Occupancy Statistics (Absolute Max) ======
  Overall Max VC Occupancy = 1
  Overall Max Buffer Occupancy = 48
latency change    = 0.546212
throughput change = 0.0562955
Class 0:
Packet latency average = 106.767
	minimum = 8
	maximum = 2511
	95th percentile = 906.5
	99th percentile = 999.5
Network latency average = 40.4349
	minimum = 8
	maximum = 2371
	95th percentile = 143.5
	99th percentile = 522.5
Slowest packet = 91607
Flit latency average = 40.4308
	minimum = 8
	maximum = 2371
	95th percentile = 143.5
	99th percentile = 522.5
Slowest flit = 91607
Fragmentation average = 0
	minimum = 0
	maximum = 0
Injected packet rate average = 0.386707
	minimum = 0.369303 (at node 8)
	maximum = 0.400242 (at node 2)
Accepted packet rate average = 0.385249
	minimum = 0.364879 (at node 3)
	maximum = 0.39997 (at node 6)
Injected flit rate average = 0.386707
	minimum = 0.369303 (at node 8)
	maximum = 0.400242 (at node 2)
Accepted flit rate average= 0.385249
	minimum = 0.364879 (at node 3)
	maximum = 0.39997 (at node 6)
Injected packet length average = 1
Accepted packet length average = 1
Total in-flight flits = 451 (451 measured)
====== Peak Queue Occupancy Statistics (Absolute Max) ======
  Overall Max VC Occupancy = 1
  Overall Max Buffer Occupancy = 48
latency change    = 0.462379
throughput change = 0.0442741
Class 0:
Packet latency average = 168.15
	minimum = 8
	maximum = 3278
	95th percentile = 999.5
	99th percentile = 999.5
Network latency average = 46.329
	minimum = 8
	maximum = 2371
	95th percentile = 179.5
	99th percentile = 622.5
Slowest packet = 91607
Flit latency average = 46.3247
	minimum = 8
	maximum = 2371
	95th percentile = 179.5
	99th percentile = 622.5
Slowest flit = 91607
Fragmentation average = 0
	minimum = 0
	maximum = 0
Injected packet rate average = 0.400627
	minimum = 0.380972 (at node 6)
	maximum = 0.416361 (at node 2)
Accepted packet rate average = 0.399272
	minimum = 0.378889 (at node 0)
	maximum = 0.416056 (at node 6)
Injected flit rate average = 0.400627
	minimum = 0.380972 (at node 6)
	maximum = 0.416361 (at node 2)
Accepted flit rate average= 0.399272
	minimum = 0.378889 (at node 0)
	maximum = 0.416056 (at node 6)
Injected packet length average = 1
Accepted packet length average = 1
Total in-flight flits = 457 (457 measured)
====== Peak Queue Occupancy Statistics (Absolute Max) ======
  Overall Max VC Occupancy = 1
  Overall Max Buffer Occupancy = 48
latency change    = 0.36505
throughput change = 0.0351201
Class 0:
Packet latency average = 236.49
	minimum = 8
	maximum = 3971
	95th percentile = 999.5
	99th percentile = 999.5
Network latency average = 51.0133
	minimum = 8
	maximum = 2371
	95th percentile = 189.5
	99th percentile = 716.5
Slowest packet = 91607
Flit latency average = 51.0089
	minimum = 8
	maximum = 2371
	95th percentile = 189.5
	99th percentile = 715.5
Slowest flit = 91607
Fragmentation average = 0
	minimum = 0
	maximum = 0
Injected packet rate average = 0.412681
	minimum = 0.390564 (at node 8)
	maximum = 0.430538 (at node 2)
Accepted packet rate average = 0.411427
	minimum = 0.386051 (at node 3)
	maximum = 0.430308 (at node 6)
Injected flit rate average = 0.412681
	minimum = 0.390564 (at node 8)
	maximum = 0.430538 (at node 2)
Accepted flit rate average= 0.411427
	minimum = 0.386051 (at node 3)
	maximum = 0.430308 (at node 6)
Injected packet length average = 1
Accepted packet length average = 1
Total in-flight flits = 457 (457 measured)
====== Peak Queue Occupancy Statistics (Absolute Max) ======
  Overall Max VC Occupancy = 1
  Overall Max Buffer Occupancy = 48
latency change    = 0.288979
throughput change = 0.0295453
Class 0:
Packet latency average = 311.907
	minimum = 8
	maximum = 4061
	95th percentile = 999.5
	99th percentile = 999.5
Network latency average = 54.6978
	minimum = 8
	maximum = 2371
	95th percentile = 210.5
	99th percentile = 792.5
Slowest packet = 91607
Flit latency average = 54.6935
	minimum = 8
	maximum = 2371
	95th percentile = 210.5
	99th percentile = 792.5
Slowest flit = 91607
Fragmentation average = 0
	minimum = 0
	maximum = 0
Injected packet rate average = 0.422788
	minimum = 0.39869 (at node 8)
	maximum = 0.442929 (at node 2)
Accepted packet rate average = 0.421619
	minimum = 0.395 (at node 3)
	maximum = 0.442738 (at node 6)
Injected flit rate average = 0.422788
	minimum = 0.39869 (at node 8)
	maximum = 0.442929 (at node 2)
Accepted flit rate average= 0.421619
	minimum = 0.395 (at node 3)
	maximum = 0.442738 (at node 6)
Injected packet length average = 1
Accepted packet length average = 1
Total in-flight flits = 460 (460 measured)
====== Peak Queue Occupancy Statistics (Absolute Max) ======
  Overall Max VC Occupancy = 1
  Overall Max Buffer Occupancy = 48
latency change    = 0.241792
throughput change = 0.0241728
Class 0:
Packet latency average = 391.173
	minimum = 8
	maximum = 4856
	95th percentile = 999.5
	99th percentile = 999.5
Network latency average = 57.9055
	minimum = 8
	maximum = 2371
	95th percentile = 226.5
	99th percentile = 910.5
Slowest packet = 91607
Flit latency average = 57.9012
	minimum = 8
	maximum = 2371
	95th percentile = 226.5
	99th percentile = 910.5
Slowest flit = 91607
Fragmentation average = 0
	minimum = 0
	maximum = 0
Injected packet rate average = 0.431373
	minimum = 0.404333 (at node 6)
	maximum = 0.453356 (at node 2)
Accepted packet rate average = 0.430291
	minimum = 0.402889 (at node 0)
	maximum = 0.453222 (at node 6)
Injected flit rate average = 0.431373
	minimum = 0.404333 (at node 6)
	maximum = 0.453356 (at node 2)
Accepted flit rate average= 0.430291
	minimum = 0.402889 (at node 0)
	maximum = 0.453222 (at node 6)
Injected packet length average = 1
Accepted packet length average = 1
Total in-flight flits = 456 (456 measured)
====== Peak Queue Occupancy Statistics (Absolute Max) ======
  Overall Max VC Occupancy = 1
  Overall Max Buffer Occupancy = 48
latency change    = 0.202637
throughput change = 0.0201545
Class 0:
Packet latency average = 473.161
	minimum = 8
	maximum = 5054
	95th percentile = 999.5
	99th percentile = 999.5
Network latency average = 60.5043
	minimum = 8
	maximum = 2371
	95th percentile = 231.5
	99th percentile = 976.5
Slowest packet = 91607
Flit latency average = 60.5002
	minimum = 8
	maximum = 2371
	95th percentile = 231.5
	99th percentile = 976.5
Slowest flit = 91607
Fragmentation average = 0
	minimum = 0
	maximum = 0
Injected packet rate average = 0.439162
	minimum = 0.409979 (at node 8)
	maximum = 0.4625 (at node 2)
Accepted packet rate average = 0.438146
	minimum = 0.406438 (at node 3)
	maximum = 0.462354 (at node 6)
Injected flit rate average = 0.439162
	minimum = 0.409979 (at node 8)
	maximum = 0.4625 (at node 2)
Accepted flit rate average= 0.438146
	minimum = 0.406438 (at node 3)
	maximum = 0.462354 (at node 6)
Injected packet length average = 1
Accepted packet length average = 1
Total in-flight flits = 457 (457 measured)
====== Peak Queue Occupancy Statistics (Absolute Max) ======
  Overall Max VC Occupancy = 1
  Overall Max Buffer Occupancy = 48
latency change    = 0.173277
throughput change = 0.0179266
Class 0:
Packet latency average = 559.805
	minimum = 8
	maximum = 5615
	95th percentile = 999.5
	99th percentile = 999.5
Network latency average = 62.7113
	minimum = 8
	maximum = 2371
	95th percentile = 240.5
	99th percentile = 999.5
Slowest packet = 91607
Flit latency average = 62.7073
	minimum = 8
	maximum = 2371
	95th percentile = 240.5
	99th percentile = 999.5
Slowest flit = 91607
Fragmentation average = 0
	minimum = 0
	maximum = 0
Injected packet rate average = 0.445869
	minimum = 0.417294 (at node 8)
	maximum = 0.470059 (at node 2)
Accepted packet rate average = 0.444924
	minimum = 0.414392 (at node 3)
	maximum = 0.469843 (at node 6)
Injected flit rate average = 0.445869
	minimum = 0.417294 (at node 8)
	maximum = 0.470059 (at node 2)
Accepted flit rate average= 0.444924
	minimum = 0.414392 (at node 3)
	maximum = 0.469843 (at node 6)
Injected packet length average = 1
Accepted packet length average = 1
Total in-flight flits = 453 (453 measured)
====== Peak Queue Occupancy Statistics (Absolute Max) ======
  Overall Max VC Occupancy = 1
  Overall Max Buffer Occupancy = 48
latency change    = 0.154775
throughput change = 0.0152339
Class 0:
Packet latency average = 647.808
	minimum = 8
	maximum = 6344
	95th percentile = 999.5
	99th percentile = 999.5
Network latency average = 64.6785
	minimum = 8
	maximum = 2371
	95th percentile = 250.5
	99th percentile = 999.5
Slowest packet = 91607
Flit latency average = 64.6746
	minimum = 8
	maximum = 2371
	95th percentile = 250.5
	99th percentile = 999.5
Slowest flit = 91607
Fragmentation average = 0
	minimum = 0
	maximum = 0
Injected packet rate average = 0.451887
	minimum = 0.420926 (at node 6)
	maximum = 0.477056 (at node 2)
Accepted packet rate average = 0.45099
	minimum = 0.419963 (at node 0)
	maximum = 0.47687 (at node 6)
Injected flit rate average = 0.451887
	minimum = 0.420926 (at node 6)
	maximum = 0.477056 (at node 2)
Accepted flit rate average= 0.45099
	minimum = 0.419963 (at node 0)
	maximum = 0.47687 (at node 6)
Injected packet length average = 1
Accepted packet length average = 1
Total in-flight flits = 453 (453 measured)
====== Peak Queue Occupancy Statistics (Absolute Max) ======
  Overall Max VC Occupancy = 1
  Overall Max Buffer Occupancy = 48
latency change    = 0.135848
throughput change = 0.0134503
Class 0:
Packet latency average = 736.302
	minimum = 8
	maximum = 6665
	95th percentile = 999.5
	99th percentile = 999.5
Network latency average = 66.337
	minimum = 8
	maximum = 2371
	95th percentile = 260.5
	99th percentile = 999.5
Slowest packet = 91607
Flit latency average = 66.3333
	minimum = 8
	maximum = 2371
	95th percentile = 260.5
	99th percentile = 999.5
Slowest flit = 91607
Fragmentation average = 0
	minimum = 0
	maximum = 0
Injected packet rate average = 0.457552
	minimum = 0.423386 (at node 8)
	maximum = 0.483772 (at node 2)
Accepted packet rate average = 0.456704
	minimum = 0.420298 (at node 3)
	maximum = 0.483614 (at node 6)
Injected flit rate average = 0.457552
	minimum = 0.423386 (at node 8)
	maximum = 0.483772 (at node 2)
Accepted flit rate average= 0.456704
	minimum = 0.420298 (at node 3)
	maximum = 0.483614 (at node 6)
Injected packet length average = 1
Accepted packet length average = 1
Total in-flight flits = 452 (452 measured)
====== Peak Queue Occupancy Statistics (Absolute Max) ======
  Overall Max VC Occupancy = 1
  Overall Max Buffer Occupancy = 48
latency change    = 0.120187
throughput change = 0.0125114
Class 0:
Packet latency average = 827.911
	minimum = 8
	maximum = 7242
	95th percentile = 999.5
	99th percentile = 999.5
Network latency average = 67.7372
	minimum = 8
	maximum = 2371
	95th percentile = 267.5
	99th percentile = 999.5
Slowest packet = 91607
Flit latency average = 67.7335
	minimum = 8
	maximum = 2371
	95th percentile = 267.5
	99th percentile = 999.5
Slowest flit = 91607
Fragmentation average = 0
	minimum = 0
	maximum = 0
Injected packet rate average = 0.462622
	minimum = 0.430183 (at node 0)
	maximum = 0.4898 (at node 2)
Accepted packet rate average = 0.461807
	minimum = 0.427883 (at node 3)
	maximum = 0.48965 (at node 6)
Injected flit rate average = 0.462622
	minimum = 0.430183 (at node 0)
	maximum = 0.4898 (at node 2)
Accepted flit rate average= 0.461807
	minimum = 0.427883 (at node 3)
	maximum = 0.48965 (at node 6)
Injected packet length average = 1
Accepted packet length average = 1
Total in-flight flits = 458 (458 measured)
====== Peak Queue Occupancy Statistics (Absolute Max) ======
  Overall Max VC Occupancy = 1
  Overall Max Buffer Occupancy = 48
latency change    = 0.110651
throughput change = 0.0110516
Class 0:
Packet latency average = 920.244
	minimum = 8
	maximum = 7938
	95th percentile = 999.5
	99th percentile = 999.5
Network latency average = 69.0781
	minimum = 8
	maximum = 2371
	95th percentile = 272.5
	99th percentile = 999.5
Slowest packet = 91607
Flit latency average = 69.0746
	minimum = 8
	maximum = 2371
	95th percentile = 272.5
	99th percentile = 999.5
Slowest flit = 91607
Fragmentation average = 0
	minimum = 0
	maximum = 0
Injected packet rate average = 0.46712
	minimum = 0.433492 (at node 6)
	maximum = 0.495524 (at node 2)
Accepted packet rate average = 0.466337
	minimum = 0.432667 (at node 0)
	maximum = 0.495317 (at node 6)
Injected flit rate average = 0.46712
	minimum = 0.433492 (at node 6)
	maximum = 0.495524 (at node 2)
Accepted flit rate average= 0.466337
	minimum = 0.432667 (at node 0)
	maximum = 0.495317 (at node 6)
Injected packet length average = 1
Accepted packet length average = 1
Total in-flight flits = 462 (462 measured)
====== Peak Queue Occupancy Statistics (Absolute Max) ======
  Overall Max VC Occupancy = 1
  Overall Max Buffer Occupancy = 48
latency change    = 0.100335
throughput change = 0.00971284
Class 0:
Packet latency average = 1012.71
	minimum = 8
	maximum = 8273
	95th percentile = 999.5
	99th percentile = 999.5
Network latency average = 70.2408
	minimum = 8
	maximum = 2371
	95th percentile = 276.5
	99th percentile = 999.5
Slowest packet = 91607
Flit latency average = 70.2374
	minimum = 8
	maximum = 2371
	95th percentile = 276.5
	99th percentile = 999.5
Slowest flit = 91607
Fragmentation average = 0
	minimum = 0
	maximum = 0
Injected packet rate average = 0.471123
	minimum = 0.433076 (at node 8)
	maximum = 0.5 (at node 2)
Accepted packet rate average = 0.470379
	minimum = 0.430545 (at node 3)
	maximum = 0.499848 (at node 6)
Injected flit rate average = 0.471123
	minimum = 0.433076 (at node 8)
	maximum = 0.5 (at node 2)
Accepted flit rate average= 0.470379
	minimum = 0.430545 (at node 3)
	maximum = 0.499848 (at node 6)
Injected packet length average = 1
Accepted packet length average = 1
Total in-flight flits = 460 (460 measured)
====== Peak Queue Occupancy Statistics (Absolute Max) ======
  Overall Max VC Occupancy = 1
  Overall Max Buffer Occupancy = 48
latency change    = 0.0913059
throughput change = 0.00859292
Draining all recorded packets ...
Class 0:
Remaining flits: 281574 281686 281910 282151 282385 282525 282627 282762 282779 282802 [...] (452 flits)
Measured flits: 281574 281686 281910 282151 282385 282525 282627 282762 282779 282802 [...] (423 flits)
Class 0:
Remaining flits: 286536 286663 286913 287151 287406 287442 287536 287551 287632 287651 [...] (451 flits)
Measured flits: 286536 286663 286913 287151 287406 287442 287536 287551 287632 287651 [...] (423 flits)
Class 0:
Remaining flits: 291614 291642 291803 291873 292112 292342 292410 292419 292494 292638 [...] (457 flits)
Measured flits: 291614 291642 291803 291873 292112 292342 292410 292419 292494 292638 [...] (424 flits)
Class 0:
Remaining flits: 294380 294786 295122 295532 295778 296247 296454 296721 297090 297285 [...] (457 flits)
Measured flits: 294380 294786 295122 295532 295778 296247 296454 296721 297090 297285 [...] (427 flits)
Class 0:
Remaining flits: 297285 299453 299604 300563 300921 301266 301306 301736 301743 302143 [...] (456 flits)
Measured flits: 297285 299453 299604 300563 300921 301266 301306 301736 301743 302143 [...] (423 flits)
Class 0:
Remaining flits: 305747 306478 306566 306801 306844 307050 307216 307296 307435 307535 [...] (458 flits)
Measured flits: 305747 306478 306566 306801 306844 307050 307216 307296 307435 307535 [...] (422 flits)
Class 0:
Remaining flits: 311287 311636 311889 311974 312141 312254 312384 312468 312519 312630 [...] (457 flits)
Measured flits: 311287 311636 311889 311974 312141 312254 312384 312468 312519 312630 [...] (428 flits)
Class 0:
Remaining flits: 315264 315760 315778 315988 316202 316368 316890 316930 316974 317215 [...] (454 flits)
Measured flits: 315264 315760 315778 315988 316202 316368 316890 316930 316974 317215 [...] (316 flits)
Class 0:
Remaining flits: 320178 320300 320528 320900 321456 321469 321925 322561 322590 322672 [...] (449 flits)
Measured flits: 320178 320300 320528 320900 321456 321469 321925 322561 322590 322672 [...] (29 flits)
Class 0:
Remaining flits: 324355 325529 325546 327523 327642 327660 327690 327754 327872 327898 [...] (446 flits)
Measured flits: 324355 (1 flits)
Draining remaining packets ...
Time taken is 82366 cycles
====== Overall Traffic Statistics ======
====== Traffic class 0 ======
Packet latency average = 1373.29 (1 samples)
	minimum = 8 (1 samples)
	maximum = 10136 (1 samples)
Network latency average = 78.6372 (1 samples)
	minimum = 8 (1 samples)
	maximum = 2419 (1 samples)
Flit latency average = 73.7969 (1 samples)
	minimum = 8 (1 samples)
	maximum = 2419 (1 samples)
Fragmentation average = 0 (1 samples)
	minimum = 0 (1 samples)
	maximum = 0 (1 samples)
Injected packet rate average = 0.471123 (1 samples)
	minimum = 0.433076 (1 samples)
	maximum = 0.5 (1 samples)
Accepted packet rate average = 0.470379 (1 samples)
	minimum = 0.430545 (1 samples)
	maximum = 0.499848 (1 samples)
Injected flit rate average = 0.471123 (1 samples)
	minimum = 0.433076 (1 samples)
	maximum = 0.5 (1 samples)
Accepted flit rate average = 0.470379 (1 samples)
	minimum = 0.430545 (1 samples)
	maximum = 0.499848 (1 samples)
Injected packet size average = 1 (1 samples)
Accepted packet size average = 1 (1 samples)
Hops average = 3.00121 (1 samples)
Total run time 28.1185

