BEGIN Configuration File: D:\noc_huawei\noc\booksim2-noc_speedup_study\booksim2-noc_speedup_study\tests\data\results\p3_ramp_to_0p6_hold_current_scheme\tmp_configs\linear_scale_racke_tree_s2202.config
num_vcs     = 48;
vc_buf_size = 16;
wait_for_tail_credit = 1;

vc_allocator = islip;
sw_allocator = islip;
alloc_iters  = 16;

credit_delay   = 2;
routing_delay  = 0;
vc_alloc_delay = 1;
sw_alloc_delay = 1;
st_final_delay = 1;

input_speedup     = 1;
output_speedup    = 1;
internal_speedup  = 2.0;

sim_type = latency;
latency_thres  = 100000.0;
sim_count      = 1;
queue_sample_period_cycles = 0;

topology = mesh;
k  = 3;
n  = 2;

hybrid_transition_mode = linear_prob;
hybrid_xy_low_threshold = 0.35;
hybrid_racke_high_threshold = 0.65;
hybrid_buffer_soft_threshold = 0.50;
hybrid_buffer_hard_threshold = 0.85;
hybrid_buffer_release_threshold = 0.35;
hybrid_rate_soft_threshold = 0.55;
hybrid_rate_hard_threshold = 0.90;
hybrid_rate_weight = 0.25;
hybrid_congestion_alpha = 0.25;
hybrid_racke_increase_step = 0.25;
hybrid_racke_decrease_step = 0.10;
hybrid_epoch_cycles = 200;
hybrid_hold_cycles = 600;
hybrid_enable_midflight_override = 1;
hybrid_feedback_delay_per_hop = 1;
hybrid_flow_increase_step = 0.20;
hybrid_flow_decrease_step = 0.08;
hybrid_flow_hard_threshold = 0.95;

packet_size = 1;


ordered_injection_coefficients = {0.1666666667,0.3333333333,0.5};
ordered_injection_phase_cycles = {1000,1000,1000};
ordered_injection_source_order = {4,0,7,2,8,1,5,3,6};
ordered_injection_flow_peak_rate = 0.60;
warmup_periods = 2;
custom_perm_array = {4,7,6,5,1,2,0,8,3};
injection_process = scheduled;
injection_rate = 0.6;
scheduled_default_phase_cycles = 3000;
perm_seed = 2202;
hybrid_flow_hotspot_alpha = 0.85;
hybrid_stats_window_cycles = 3000;
hybrid_flow_hotspot_threshold = 0.8;
sample_period = 3000;
scheduled_injection_rates = {0.05,0.1,0.15,0.2,0.25,0.3,0.35,0.4,0.45,0.5,0.55,0.6,0.6,0.6,0.6,0.6};
traffic = custom_perm;
routing_function = racke_tree;
scheduled_phase_cycles = {3000,3000,3000,3000,3000,3000,3000,3000,3000,3000,3000,3000,3000,3000,3000,3000};
seed = 2202;
max_samples = 24;

END Configuration File: D:\noc_huawei\noc\booksim2-noc_speedup_study\booksim2-noc_speedup_study\tests\data\results\p3_ramp_to_0p6_hold_current_scheme\tmp_configs\linear_scale_racke_tree_s2202.config
Class 0:
Packet latency average = 13.0323
	minimum = 8
	maximum = 24
	95th percentile = 20.5
	99th percentile = 23.5
Network latency average = 13.0323
	minimum = 8
	maximum = 24
	95th percentile = 20.5
	99th percentile = 23.5
Slowest packet = 610
Flit latency average = 13.0323
	minimum = 8
	maximum = 24
	95th percentile = 20.5
	99th percentile = 23.5
Slowest flit = 610
Fragmentation average = 0
	minimum = 0
	maximum = 0
Injected packet rate average = 0.0506296
	minimum = 0.046 (at node 2)
	maximum = 0.0553333 (at node 8)
Accepted packet rate average = 0.0505185
	minimum = 0.0456667 (at node 6)
	maximum = 0.0553333 (at node 3)
Injected flit rate average = 0.0506296
	minimum = 0.046 (at node 2)
	maximum = 0.0553333 (at node 8)
Accepted flit rate average= 0.0505185
	minimum = 0.0456667 (at node 6)
	maximum = 0.0553333 (at node 3)
Injected packet length average = 1
Accepted packet length average = 1
Total in-flight flits = 3 (0 measured)
====== Peak Queue Occupancy Statistics (Absolute Max) ======
  Overall Max VC Occupancy = 1
  Overall Max Buffer Occupancy = 2
latency change    = 1
throughput change = 1
Class 0:
Packet latency average = 13.0374
	minimum = 8
	maximum = 24
	95th percentile = 20.5
	99th percentile = 23.5
Network latency average = 13.0374
	minimum = 8
	maximum = 24
	95th percentile = 20.5
	99th percentile = 23.5
Slowest packet = 610
Flit latency average = 13.0374
	minimum = 8
	maximum = 24
	95th percentile = 20.5
	99th percentile = 23.5
Slowest flit = 610
Fragmentation average = 0
	minimum = 0
	maximum = 0
Injected packet rate average = 0.0744815
	minimum = 0.069 (at node 6)
	maximum = 0.0775 (at node 5)
Accepted packet rate average = 0.0742778
	minimum = 0.069 (at node 0)
	maximum = 0.0768333 (at node 1)
Injected flit rate average = 0.0744815
	minimum = 0.069 (at node 6)
	maximum = 0.0775 (at node 5)
Accepted flit rate average= 0.0742778
	minimum = 0.069 (at node 0)
	maximum = 0.0768333 (at node 1)
Injected packet length average = 1
Accepted packet length average = 1
Total in-flight flits = 11 (0 measured)
====== Peak Queue Occupancy Statistics (Absolute Max) ======
  Overall Max VC Occupancy = 1
  Overall Max Buffer Occupancy = 2
latency change    = 0.000394181
throughput change = 0.31987
Warmed up ...Time used is 6000 cycles
Class 0:
Packet latency average = 13.0871
	minimum = 8
	maximum = 26
	95th percentile = 20.5
	99th percentile = 23.5
Network latency average = 13.0871
	minimum = 8
	maximum = 26
	95th percentile = 20.5
	99th percentile = 23.5
Slowest packet = 5143
Flit latency average = 13.0888
	minimum = 8
	maximum = 26
	95th percentile = 20.5
	99th percentile = 23.5
Slowest flit = 5143
Fragmentation average = 0
	minimum = 0
	maximum = 0
Injected packet rate average = 0.149889
	minimum = 0.137667 (at node 2)
	maximum = 0.160333 (at node 5)
Accepted packet rate average = 0.149667
	minimum = 0.137333 (at node 6)
	maximum = 0.160667 (at node 2)
Injected flit rate average = 0.149889
	minimum = 0.137667 (at node 2)
	maximum = 0.160333 (at node 5)
Accepted flit rate average= 0.149667
	minimum = 0.137333 (at node 6)
	maximum = 0.160667 (at node 2)
Injected packet length average = 1
Accepted packet length average = 1
Total in-flight flits = 17 (17 measured)
====== Peak Queue Occupancy Statistics (Absolute Max) ======
  Overall Max VC Occupancy = 1
  Overall Max Buffer Occupancy = 2
latency change    = 0.0037976
throughput change = 0.503712
Class 0:
Packet latency average = 13.1487
	minimum = 8
	maximum = 26
	95th percentile = 20.5
	99th percentile = 23.5
Network latency average = 13.1487
	minimum = 8
	maximum = 26
	95th percentile = 20.5
	99th percentile = 23.5
Slowest packet = 5143
Flit latency average = 13.1494
	minimum = 8
	maximum = 26
	95th percentile = 20.5
	99th percentile = 23.5
Slowest flit = 5143
Fragmentation average = 0
	minimum = 0
	maximum = 0
Injected packet rate average = 0.176463
	minimum = 0.164333 (at node 2)
	maximum = 0.183667 (at node 6)
Accepted packet rate average = 0.176167
	minimum = 0.1635 (at node 6)
	maximum = 0.183333 (at node 0)
Injected flit rate average = 0.176463
	minimum = 0.164333 (at node 2)
	maximum = 0.183667 (at node 6)
Accepted flit rate average= 0.176167
	minimum = 0.1635 (at node 6)
	maximum = 0.183333 (at node 0)
Injected packet length average = 1
Accepted packet length average = 1
Total in-flight flits = 27 (27 measured)
====== Peak Queue Occupancy Statistics (Absolute Max) ======
  Overall Max VC Occupancy = 1
  Overall Max Buffer Occupancy = 2
latency change    = 0.00468554
throughput change = 0.150426
Class 0:
Packet latency average = 13.1858
	minimum = 8
	maximum = 26
	95th percentile = 20.5
	99th percentile = 23.5
Network latency average = 13.1858
	minimum = 8
	maximum = 26
	95th percentile = 20.5
	99th percentile = 23.5
Slowest packet = 5143
Flit latency average = 13.1861
	minimum = 8
	maximum = 26
	95th percentile = 20.5
	99th percentile = 23.5
Slowest flit = 5143
Fragmentation average = 0
	minimum = 0
	maximum = 0
Injected packet rate average = 0.201111
	minimum = 0.191222 (at node 2)
	maximum = 0.206444 (at node 3)
Accepted packet rate average = 0.200963
	minimum = 0.190889 (at node 6)
	maximum = 0.206667 (at node 5)
Injected flit rate average = 0.201111
	minimum = 0.191222 (at node 2)
	maximum = 0.206444 (at node 3)
Accepted flit rate average= 0.200963
	minimum = 0.190889 (at node 6)
	maximum = 0.206667 (at node 5)
Injected packet length average = 1
Accepted packet length average = 1
Total in-flight flits = 23 (23 measured)
====== Peak Queue Occupancy Statistics (Absolute Max) ======
  Overall Max VC Occupancy = 1
  Overall Max Buffer Occupancy = 2
latency change    = 0.00281131
throughput change = 0.123387
Class 0:
Packet latency average = 13.2429
	minimum = 8
	maximum = 27
	95th percentile = 20.5
	99th percentile = 23.5
Network latency average = 13.2429
	minimum = 8
	maximum = 27
	95th percentile = 20.5
	99th percentile = 23.5
Slowest packet = 23163
Flit latency average = 13.2431
	minimum = 8
	maximum = 27
	95th percentile = 20.5
	99th percentile = 23.5
Slowest flit = 23163
Fragmentation average = 0
	minimum = 0
	maximum = 0
Injected packet rate average = 0.226306
	minimum = 0.21725 (at node 2)
	maximum = 0.23425 (at node 7)
Accepted packet rate average = 0.226139
	minimum = 0.217083 (at node 6)
	maximum = 0.234167 (at node 8)
Injected flit rate average = 0.226306
	minimum = 0.21725 (at node 2)
	maximum = 0.23425 (at node 7)
Accepted flit rate average= 0.226139
	minimum = 0.217083 (at node 6)
	maximum = 0.234167 (at node 8)
Injected packet length average = 1
Accepted packet length average = 1
Total in-flight flits = 29 (29 measured)
====== Peak Queue Occupancy Statistics (Absolute Max) ======
  Overall Max VC Occupancy = 1
  Overall Max Buffer Occupancy = 2
latency change    = 0.00431464
throughput change = 0.111329
Class 0:
Packet latency average = 13.2869
	minimum = 8
	maximum = 28
	95th percentile = 20.5
	99th percentile = 23.5
Network latency average = 13.2869
	minimum = 8
	maximum = 28
	95th percentile = 20.5
	99th percentile = 23.5
Slowest packet = 28846
Flit latency average = 13.287
	minimum = 8
	maximum = 28
	95th percentile = 20.5
	99th percentile = 23.5
Slowest flit = 28846
Fragmentation average = 0
	minimum = 0
	maximum = 0
Injected packet rate average = 0.250859
	minimum = 0.243933 (at node 2)
	maximum = 0.2578 (at node 7)
Accepted packet rate average = 0.250593
	minimum = 0.243733 (at node 6)
	maximum = 0.2574 (at node 8)
Injected flit rate average = 0.250859
	minimum = 0.243933 (at node 2)
	maximum = 0.2578 (at node 7)
Accepted flit rate average= 0.250593
	minimum = 0.243733 (at node 6)
	maximum = 0.2574 (at node 8)
Injected packet length average = 1
Accepted packet length average = 1
Total in-flight flits = 47 (47 measured)
====== Peak Queue Occupancy Statistics (Absolute Max) ======
  Overall Max VC Occupancy = 1
  Overall Max Buffer Occupancy = 2
latency change    = 0.00330682
throughput change = 0.0975835
Class 0:
Packet latency average = 13.3377
	minimum = 8
	maximum = 28
	95th percentile = 20.5
	99th percentile = 23.5
Network latency average = 13.3377
	minimum = 8
	maximum = 28
	95th percentile = 20.5
	99th percentile = 23.5
Slowest packet = 28846
Flit latency average = 13.3378
	minimum = 8
	maximum = 28
	95th percentile = 20.5
	99th percentile = 23.5
Slowest flit = 28846
Fragmentation average = 0
	minimum = 0
	maximum = 0
Injected packet rate average = 0.275938
	minimum = 0.269 (at node 2)
	maximum = 0.282056 (at node 7)
Accepted packet rate average = 0.275642
	minimum = 0.2685 (at node 6)
	maximum = 0.281889 (at node 8)
Injected flit rate average = 0.275938
	minimum = 0.269 (at node 2)
	maximum = 0.282056 (at node 7)
Accepted flit rate average= 0.275642
	minimum = 0.2685 (at node 6)
	maximum = 0.281889 (at node 8)
Injected packet length average = 1
Accepted packet length average = 1
Total in-flight flits = 59 (59 measured)
====== Peak Queue Occupancy Statistics (Absolute Max) ======
  Overall Max VC Occupancy = 1
  Overall Max Buffer Occupancy = 2
latency change    = 0.00381088
throughput change = 0.0908765
Class 0:
Packet latency average = 13.3993
	minimum = 8
	maximum = 28
	95th percentile = 20.5
	99th percentile = 23.5
Network latency average = 13.3993
	minimum = 8
	maximum = 28
	95th percentile = 20.5
	99th percentile = 23.5
Slowest packet = 28846
Flit latency average = 13.3993
	minimum = 8
	maximum = 28
	95th percentile = 20.5
	99th percentile = 23.5
Slowest flit = 28846
Fragmentation average = 0
	minimum = 0
	maximum = 0
Injected packet rate average = 0.301317
	minimum = 0.293857 (at node 2)
	maximum = 0.306905 (at node 7)
Accepted packet rate average = 0.301053
	minimum = 0.293524 (at node 6)
	maximum = 0.306619 (at node 8)
Injected flit rate average = 0.301317
	minimum = 0.293857 (at node 2)
	maximum = 0.306905 (at node 7)
Accepted flit rate average= 0.301053
	minimum = 0.293524 (at node 6)
	maximum = 0.306619 (at node 8)
Injected packet length average = 1
Accepted packet length average = 1
Total in-flight flits = 61 (61 measured)
====== Peak Queue Occupancy Statistics (Absolute Max) ======
  Overall Max VC Occupancy = 1
  Overall Max Buffer Occupancy = 2
latency change    = 0.00459703
throughput change = 0.0844069
Class 0:
Packet latency average = 13.4584
	minimum = 8
	maximum = 28
	95th percentile = 21.5
	99th percentile = 23.5
Network latency average = 13.4584
	minimum = 8
	maximum = 28
	95th percentile = 21.5
	99th percentile = 23.5
Slowest packet = 28846
Flit latency average = 13.4585
	minimum = 8
	maximum = 28
	95th percentile = 21.5
	99th percentile = 23.5
Slowest flit = 28846
Fragmentation average = 0
	minimum = 0
	maximum = 0
Injected packet rate average = 0.325671
	minimum = 0.318917 (at node 2)
	maximum = 0.330875 (at node 7)
Accepted packet rate average = 0.325407
	minimum = 0.318583 (at node 6)
	maximum = 0.330542 (at node 8)
Injected flit rate average = 0.325671
	minimum = 0.318917 (at node 2)
	maximum = 0.330875 (at node 7)
Accepted flit rate average= 0.325407
	minimum = 0.318583 (at node 6)
	maximum = 0.330542 (at node 8)
Injected packet length average = 1
Accepted packet length average = 1
Total in-flight flits = 68 (68 measured)
====== Peak Queue Occupancy Statistics (Absolute Max) ======
  Overall Max VC Occupancy = 1
  Overall Max Buffer Occupancy = 2
latency change    = 0.00439629
throughput change = 0.0748431
Class 0:
Packet latency average = 13.5224
	minimum = 8
	maximum = 29
	95th percentile = 21.5
	99th percentile = 24.5
Network latency average = 13.5224
	minimum = 8
	maximum = 29
	95th percentile = 21.5
	99th percentile = 24.5
Slowest packet = 78203
Flit latency average = 13.5224
	minimum = 8
	maximum = 29
	95th percentile = 21.5
	99th percentile = 24.5
Slowest flit = 78203
Fragmentation average = 0
	minimum = 0
	maximum = 0
Injected packet rate average = 0.350716
	minimum = 0.342593 (at node 2)
	maximum = 0.354963 (at node 7)
Accepted packet rate average = 0.350444
	minimum = 0.342222 (at node 6)
	maximum = 0.354778 (at node 8)
Injected flit rate average = 0.350716
	minimum = 0.342593 (at node 2)
	maximum = 0.354963 (at node 7)
Accepted flit rate average= 0.350444
	minimum = 0.342222 (at node 6)
	maximum = 0.354778 (at node 8)
Injected packet length average = 1
Accepted packet length average = 1
Total in-flight flits = 77 (77 measured)
====== Peak Queue Occupancy Statistics (Absolute Max) ======
  Overall Max VC Occupancy = 1
  Overall Max Buffer Occupancy = 2
latency change    = 0.00473075
throughput change = 0.0714437
Class 0:
Packet latency average = 13.5923
	minimum = 8
	maximum = 30
	95th percentile = 21.5
	99th percentile = 24.5
Network latency average = 13.5923
	minimum = 8
	maximum = 30
	95th percentile = 21.5
	99th percentile = 24.5
Slowest packet = 89337
Flit latency average = 13.5923
	minimum = 8
	maximum = 30
	95th percentile = 21.5
	99th percentile = 24.5
Slowest flit = 89337
Fragmentation average = 0
	minimum = 0
	maximum = 0
Injected packet rate average = 0.37553
	minimum = 0.368333 (at node 2)
	maximum = 0.379767 (at node 3)
Accepted packet rate average = 0.375333
	minimum = 0.367967 (at node 6)
	maximum = 0.379567 (at node 5)
Injected flit rate average = 0.37553
	minimum = 0.368333 (at node 2)
	maximum = 0.379767 (at node 3)
Accepted flit rate average= 0.375333
	minimum = 0.367967 (at node 6)
	maximum = 0.379567 (at node 5)
Injected packet length average = 1
Accepted packet length average = 1
Total in-flight flits = 64 (64 measured)
====== Peak Queue Occupancy Statistics (Absolute Max) ======
  Overall Max VC Occupancy = 1
  Overall Max Buffer Occupancy = 3
latency change    = 0.00513929
throughput change = 0.0663114
Class 0:
Packet latency average = 13.6402
	minimum = 8
	maximum = 30
	95th percentile = 21.5
	99th percentile = 24.5
Network latency average = 13.6402
	minimum = 8
	maximum = 30
	95th percentile = 21.5
	99th percentile = 24.5
Slowest packet = 89337
Flit latency average = 13.6402
	minimum = 8
	maximum = 30
	95th percentile = 21.5
	99th percentile = 24.5
Slowest flit = 89337
Fragmentation average = 0
	minimum = 0
	maximum = 0
Injected packet rate average = 0.39598
	minimum = 0.388545 (at node 2)
	maximum = 0.400606 (at node 7)
Accepted packet rate average = 0.395801
	minimum = 0.388273 (at node 6)
	maximum = 0.400364 (at node 8)
Injected flit rate average = 0.39598
	minimum = 0.388545 (at node 2)
	maximum = 0.400606 (at node 7)
Accepted flit rate average= 0.395801
	minimum = 0.388273 (at node 6)
	maximum = 0.400364 (at node 8)
Injected packet length average = 1
Accepted packet length average = 1
Total in-flight flits = 64 (64 measured)
====== Peak Queue Occupancy Statistics (Absolute Max) ======
  Overall Max VC Occupancy = 1
  Overall Max Buffer Occupancy = 3
latency change    = 0.00351249
throughput change = 0.0517128
Class 0:
Packet latency average = 13.6801
	minimum = 8
	maximum = 30
	95th percentile = 21.5
	99th percentile = 24.5
Network latency average = 13.6801
	minimum = 8
	maximum = 30
	95th percentile = 21.5
	99th percentile = 24.5
Slowest packet = 89337
Flit latency average = 13.6801
	minimum = 8
	maximum = 30
	95th percentile = 21.5
	99th percentile = 24.5
Slowest flit = 89337
Fragmentation average = 0
	minimum = 0
	maximum = 0
Injected packet rate average = 0.412969
	minimum = 0.406472 (at node 2)
	maximum = 0.418028 (at node 7)
Accepted packet rate average = 0.412735
	minimum = 0.406056 (at node 6)
	maximum = 0.417778 (at node 8)
Injected flit rate average = 0.412969
	minimum = 0.406472 (at node 2)
	maximum = 0.418028 (at node 7)
Accepted flit rate average= 0.412735
	minimum = 0.406056 (at node 6)
	maximum = 0.417778 (at node 8)
Injected packet length average = 1
Accepted packet length average = 1
Total in-flight flits = 87 (87 measured)
====== Peak Queue Occupancy Statistics (Absolute Max) ======
  Overall Max VC Occupancy = 1
  Overall Max Buffer Occupancy = 3
latency change    = 0.00291564
throughput change = 0.0410269
Class 0:
Packet latency average = 13.7093
	minimum = 8
	maximum = 30
	95th percentile = 21.5
	99th percentile = 24.5
Network latency average = 13.7093
	minimum = 8
	maximum = 30
	95th percentile = 21.5
	99th percentile = 24.5
Slowest packet = 89337
Flit latency average = 13.7093
	minimum = 8
	maximum = 30
	95th percentile = 21.5
	99th percentile = 24.5
Slowest flit = 89337
Fragmentation average = 0
	minimum = 0
	maximum = 0
Injected packet rate average = 0.42708
	minimum = 0.420974 (at node 2)
	maximum = 0.432333 (at node 7)
Accepted packet rate average = 0.426909
	minimum = 0.420692 (at node 6)
	maximum = 0.432179 (at node 8)
Injected flit rate average = 0.42708
	minimum = 0.420974 (at node 2)
	maximum = 0.432333 (at node 7)
Accepted flit rate average= 0.426909
	minimum = 0.420692 (at node 6)
	maximum = 0.432179 (at node 8)
Injected packet length average = 1
Accepted packet length average = 1
Total in-flight flits = 71 (71 measured)
====== Peak Queue Occupancy Statistics (Absolute Max) ======
  Overall Max VC Occupancy = 1
  Overall Max Buffer Occupancy = 3
latency change    = 0.00212891
throughput change = 0.0332021
Class 0:
Packet latency average = 13.7333
	minimum = 8
	maximum = 30
	95th percentile = 21.5
	99th percentile = 24.5
Network latency average = 13.7333
	minimum = 8
	maximum = 30
	95th percentile = 21.5
	99th percentile = 24.5
Slowest packet = 89337
Flit latency average = 13.7333
	minimum = 8
	maximum = 30
	95th percentile = 21.5
	99th percentile = 24.5
Slowest flit = 89337
Fragmentation average = 0
	minimum = 0
	maximum = 0
Injected packet rate average = 0.43964
	minimum = 0.43469 (at node 2)
	maximum = 0.444048 (at node 7)
Accepted packet rate average = 0.439463
	minimum = 0.434429 (at node 6)
	maximum = 0.443905 (at node 8)
Injected flit rate average = 0.43964
	minimum = 0.43469 (at node 2)
	maximum = 0.444048 (at node 7)
Accepted flit rate average= 0.439463
	minimum = 0.434429 (at node 6)
	maximum = 0.443905 (at node 8)
Injected packet length average = 1
Accepted packet length average = 1
Total in-flight flits = 78 (78 measured)
====== Peak Queue Occupancy Statistics (Absolute Max) ======
  Overall Max VC Occupancy = 1
  Overall Max Buffer Occupancy = 3
latency change    = 0.00175262
throughput change = 0.028567
Draining all recorded packets ...
Draining remaining packets ...
Time taken is 48046 cycles
====== Overall Traffic Statistics ======
====== Traffic class 0 ======
Packet latency average = 13.7341 (1 samples)
	minimum = 8 (1 samples)
	maximum = 30 (1 samples)
Network latency average = 13.7341 (1 samples)
	minimum = 8 (1 samples)
	maximum = 30 (1 samples)
Flit latency average = 13.7345 (1 samples)
	minimum = 8 (1 samples)
	maximum = 30 (1 samples)
Fragmentation average = 0 (1 samples)
	minimum = 0 (1 samples)
	maximum = 0 (1 samples)
Injected packet rate average = 0.43964 (1 samples)
	minimum = 0.43469 (1 samples)
	maximum = 0.444048 (1 samples)
Accepted packet rate average = 0.439463 (1 samples)
	minimum = 0.434429 (1 samples)
	maximum = 0.443905 (1 samples)
Injected flit rate average = 0.43964 (1 samples)
	minimum = 0.43469 (1 samples)
	maximum = 0.444048 (1 samples)
Accepted flit rate average = 0.439463 (1 samples)
	minimum = 0.434429 (1 samples)
	maximum = 0.443905 (1 samples)
Injected packet size average = 1 (1 samples)
Accepted packet size average = 1 (1 samples)
Hops average = 3.66389 (1 samples)
Total run time 5.80693

