BEGIN Configuration File: D:\noc_huawei\noc\booksim2-noc_speedup_study\booksim2-noc_speedup_study\tests\data\results\p3_ramp_to_0p6_hold_current_scheme\tmp_configs\linear_scale_racke_tree_s2201.config
num_vcs     = 48;
vc_buf_size = 16;
wait_for_tail_credit = 1;

vc_allocator = islip;
sw_allocator = islip;
alloc_iters  = 16;

credit_delay   = 2;
routing_delay  = 0;
vc_alloc_delay = 1;
sw_alloc_delay = 1;
st_final_delay = 1;

input_speedup     = 1;
output_speedup    = 1;
internal_speedup  = 2.0;

sim_type = latency;
latency_thres  = 100000.0;
sim_count      = 1;
queue_sample_period_cycles = 0;

topology = mesh;
k  = 3;
n  = 2;

hybrid_transition_mode = linear_prob;
hybrid_xy_low_threshold = 0.35;
hybrid_racke_high_threshold = 0.65;
hybrid_buffer_soft_threshold = 0.50;
hybrid_buffer_hard_threshold = 0.85;
hybrid_buffer_release_threshold = 0.35;
hybrid_rate_soft_threshold = 0.55;
hybrid_rate_hard_threshold = 0.90;
hybrid_rate_weight = 0.25;
hybrid_congestion_alpha = 0.25;
hybrid_racke_increase_step = 0.25;
hybrid_racke_decrease_step = 0.10;
hybrid_epoch_cycles = 200;
hybrid_hold_cycles = 600;
hybrid_enable_midflight_override = 1;
hybrid_feedback_delay_per_hop = 1;
hybrid_flow_increase_step = 0.20;
hybrid_flow_decrease_step = 0.08;
hybrid_flow_hard_threshold = 0.95;

packet_size = 1;


ordered_injection_coefficients = {0.1666666667,0.3333333333,0.5};
ordered_injection_phase_cycles = {1000,1000,1000};
ordered_injection_source_order = {4,0,7,2,8,1,5,3,6};
ordered_injection_flow_peak_rate = 0.60;
warmup_periods = 2;
custom_perm_array = {4,7,6,5,1,2,0,8,3};
injection_process = scheduled;
injection_rate = 0.6;
scheduled_default_phase_cycles = 3000;
perm_seed = 2201;
hybrid_flow_hotspot_alpha = 0.85;
hybrid_stats_window_cycles = 3000;
hybrid_flow_hotspot_threshold = 0.8;
sample_period = 3000;
scheduled_injection_rates = {0.05,0.1,0.15,0.2,0.25,0.3,0.35,0.4,0.45,0.5,0.55,0.6,0.6,0.6,0.6,0.6};
traffic = custom_perm;
routing_function = racke_tree;
scheduled_phase_cycles = {3000,3000,3000,3000,3000,3000,3000,3000,3000,3000,3000,3000,3000,3000,3000,3000};
seed = 2201;
max_samples = 24;

END Configuration File: D:\noc_huawei\noc\booksim2-noc_speedup_study\booksim2-noc_speedup_study\tests\data\results\p3_ramp_to_0p6_hold_current_scheme\tmp_configs\linear_scale_racke_tree_s2201.config
Class 0:
Packet latency average = 13.0677
	minimum = 8
	maximum = 23
	95th percentile = 20.5
	99th percentile = 23.5
Network latency average = 13.0677
	minimum = 8
	maximum = 23
	95th percentile = 20.5
	99th percentile = 23.5
Slowest packet = 40
Flit latency average = 13.0677
	minimum = 8
	maximum = 23
	95th percentile = 20.5
	99th percentile = 23.5
Slowest flit = 40
Fragmentation average = 0
	minimum = 0
	maximum = 0
Injected packet rate average = 0.0482963
	minimum = 0.044 (at node 4)
	maximum = 0.054 (at node 6)
Accepted packet rate average = 0.0481111
	minimum = 0.0436667 (at node 1)
	maximum = 0.054 (at node 0)
Injected flit rate average = 0.0482963
	minimum = 0.044 (at node 4)
	maximum = 0.054 (at node 6)
Accepted flit rate average= 0.0481111
	minimum = 0.0436667 (at node 1)
	maximum = 0.054 (at node 0)
Injected packet length average = 1
Accepted packet length average = 1
Total in-flight flits = 5 (0 measured)
====== Peak Queue Occupancy Statistics (Absolute Max) ======
  Overall Max VC Occupancy = 1
  Overall Max Buffer Occupancy = 2
latency change    = 1
throughput change = 1
Class 0:
Packet latency average = 13.1224
	minimum = 8
	maximum = 25
	95th percentile = 20.5
	99th percentile = 23.5
Network latency average = 13.1224
	minimum = 8
	maximum = 25
	95th percentile = 20.5
	99th percentile = 23.5
Slowest packet = 3209
Flit latency average = 13.1224
	minimum = 8
	maximum = 25
	95th percentile = 20.5
	99th percentile = 23.5
Slowest flit = 3209
Fragmentation average = 0
	minimum = 0
	maximum = 0
Injected packet rate average = 0.0745926
	minimum = 0.069 (at node 8)
	maximum = 0.0791667 (at node 1)
Accepted packet rate average = 0.0742593
	minimum = 0.0688333 (at node 3)
	maximum = 0.0786667 (at node 7)
Injected flit rate average = 0.0745926
	minimum = 0.069 (at node 8)
	maximum = 0.0791667 (at node 1)
Accepted flit rate average= 0.0742593
	minimum = 0.0688333 (at node 3)
	maximum = 0.0786667 (at node 7)
Injected packet length average = 1
Accepted packet length average = 1
Total in-flight flits = 18 (0 measured)
====== Peak Queue Occupancy Statistics (Absolute Max) ======
  Overall Max VC Occupancy = 1
  Overall Max Buffer Occupancy = 2
latency change    = 0.00416839
throughput change = 0.35212
Warmed up ...Time used is 6000 cycles
Class 0:
Packet latency average = 13.1389
	minimum = 8
	maximum = 26
	95th percentile = 20.5
	99th percentile = 23.5
Network latency average = 13.1389
	minimum = 8
	maximum = 26
	95th percentile = 20.5
	99th percentile = 23.5
Slowest packet = 4796
Flit latency average = 13.1358
	minimum = 8
	maximum = 26
	95th percentile = 20.5
	99th percentile = 23.5
Slowest flit = 4796
Fragmentation average = 0
	minimum = 0
	maximum = 0
Injected packet rate average = 0.148667
	minimum = 0.134333 (at node 1)
	maximum = 0.155 (at node 8)
Accepted packet rate average = 0.14863
	minimum = 0.135 (at node 7)
	maximum = 0.155 (at node 3)
Injected flit rate average = 0.148667
	minimum = 0.134333 (at node 1)
	maximum = 0.155 (at node 8)
Accepted flit rate average= 0.14863
	minimum = 0.135 (at node 7)
	maximum = 0.155 (at node 3)
Injected packet length average = 1
Accepted packet length average = 1
Total in-flight flits = 19 (19 measured)
====== Peak Queue Occupancy Statistics (Absolute Max) ======
  Overall Max VC Occupancy = 1
  Overall Max Buffer Occupancy = 2
latency change    = 0.00125427
throughput change = 0.500374
Class 0:
Packet latency average = 13.1946
	minimum = 8
	maximum = 27
	95th percentile = 20.5
	99th percentile = 23.5
Network latency average = 13.1946
	minimum = 8
	maximum = 27
	95th percentile = 20.5
	99th percentile = 23.5
Slowest packet = 13001
Flit latency average = 13.1932
	minimum = 8
	maximum = 27
	95th percentile = 20.5
	99th percentile = 23.5
Slowest flit = 13001
Fragmentation average = 0
	minimum = 0
	maximum = 0
Injected packet rate average = 0.173815
	minimum = 0.167667 (at node 1)
	maximum = 0.1795 (at node 2)
Accepted packet rate average = 0.173685
	minimum = 0.167667 (at node 7)
	maximum = 0.179167 (at node 6)
Injected flit rate average = 0.173815
	minimum = 0.167667 (at node 1)
	maximum = 0.1795 (at node 2)
Accepted flit rate average= 0.173685
	minimum = 0.167667 (at node 7)
	maximum = 0.179167 (at node 6)
Injected packet length average = 1
Accepted packet length average = 1
Total in-flight flits = 25 (25 measured)
====== Peak Queue Occupancy Statistics (Absolute Max) ======
  Overall Max VC Occupancy = 1
  Overall Max Buffer Occupancy = 2
latency change    = 0.00422245
throughput change = 0.144258
Class 0:
Packet latency average = 13.2233
	minimum = 8
	maximum = 27
	95th percentile = 20.5
	99th percentile = 23.5
Network latency average = 13.2233
	minimum = 8
	maximum = 27
	95th percentile = 20.5
	99th percentile = 23.5
Slowest packet = 13001
Flit latency average = 13.2224
	minimum = 8
	maximum = 27
	95th percentile = 20.5
	99th percentile = 23.5
Slowest flit = 13001
Fragmentation average = 0
	minimum = 0
	maximum = 0
Injected packet rate average = 0.198556
	minimum = 0.196 (at node 1)
	maximum = 0.205667 (at node 7)
Accepted packet rate average = 0.198321
	minimum = 0.195667 (at node 3)
	maximum = 0.205333 (at node 8)
Injected flit rate average = 0.198556
	minimum = 0.196 (at node 1)
	maximum = 0.205667 (at node 7)
Accepted flit rate average= 0.198321
	minimum = 0.195667 (at node 3)
	maximum = 0.205333 (at node 8)
Injected packet length average = 1
Accepted packet length average = 1
Total in-flight flits = 37 (37 measured)
====== Peak Queue Occupancy Statistics (Absolute Max) ======
  Overall Max VC Occupancy = 1
  Overall Max Buffer Occupancy = 2
latency change    = 0.00216725
throughput change = 0.124222
Class 0:
Packet latency average = 13.2634
	minimum = 8
	maximum = 28
	95th percentile = 20.5
	99th percentile = 23.5
Network latency average = 13.2634
	minimum = 8
	maximum = 28
	95th percentile = 20.5
	99th percentile = 23.5
Slowest packet = 24564
Flit latency average = 13.2628
	minimum = 8
	maximum = 28
	95th percentile = 20.5
	99th percentile = 23.5
Slowest flit = 24564
Fragmentation average = 0
	minimum = 0
	maximum = 0
Injected packet rate average = 0.225056
	minimum = 0.223083 (at node 6)
	maximum = 0.229167 (at node 7)
Accepted packet rate average = 0.224917
	minimum = 0.223083 (at node 0)
	maximum = 0.228917 (at node 8)
Injected flit rate average = 0.225056
	minimum = 0.223083 (at node 6)
	maximum = 0.229167 (at node 7)
Accepted flit rate average= 0.224917
	minimum = 0.223083 (at node 0)
	maximum = 0.228917 (at node 8)
Injected packet length average = 1
Accepted packet length average = 1
Total in-flight flits = 33 (33 measured)
====== Peak Queue Occupancy Statistics (Absolute Max) ======
  Overall Max VC Occupancy = 1
  Overall Max Buffer Occupancy = 2
latency change    = 0.00302212
throughput change = 0.118247
Class 0:
Packet latency average = 13.3062
	minimum = 8
	maximum = 28
	95th percentile = 20.5
	99th percentile = 23.5
Network latency average = 13.3062
	minimum = 8
	maximum = 28
	95th percentile = 20.5
	99th percentile = 23.5
Slowest packet = 24564
Flit latency average = 13.3058
	minimum = 8
	maximum = 28
	95th percentile = 20.5
	99th percentile = 23.5
Slowest flit = 24564
Fragmentation average = 0
	minimum = 0
	maximum = 0
Injected packet rate average = 0.250067
	minimum = 0.244467 (at node 6)
	maximum = 0.255133 (at node 7)
Accepted packet rate average = 0.24983
	minimum = 0.2442 (at node 0)
	maximum = 0.254933 (at node 8)
Injected flit rate average = 0.250067
	minimum = 0.244467 (at node 6)
	maximum = 0.255133 (at node 7)
Accepted flit rate average= 0.24983
	minimum = 0.2442 (at node 0)
	maximum = 0.254933 (at node 8)
Injected packet length average = 1
Accepted packet length average = 1
Total in-flight flits = 50 (50 measured)
====== Peak Queue Occupancy Statistics (Absolute Max) ======
  Overall Max VC Occupancy = 1
  Overall Max Buffer Occupancy = 2
latency change    = 0.00322102
throughput change = 0.0997198
Class 0:
Packet latency average = 13.3652
	minimum = 8
	maximum = 28
	95th percentile = 20.5
	99th percentile = 23.5
Network latency average = 13.3652
	minimum = 8
	maximum = 28
	95th percentile = 20.5
	99th percentile = 23.5
Slowest packet = 24564
Flit latency average = 13.3648
	minimum = 8
	maximum = 28
	95th percentile = 20.5
	99th percentile = 23.5
Slowest flit = 24564
Fragmentation average = 0
	minimum = 0
	maximum = 0
Injected packet rate average = 0.275395
	minimum = 0.270167 (at node 6)
	maximum = 0.279444 (at node 7)
Accepted packet rate average = 0.275148
	minimum = 0.27 (at node 0)
	maximum = 0.279111 (at node 8)
Injected flit rate average = 0.275395
	minimum = 0.270167 (at node 6)
	maximum = 0.279444 (at node 7)
Accepted flit rate average= 0.275148
	minimum = 0.27 (at node 0)
	maximum = 0.279111 (at node 8)
Injected packet length average = 1
Accepted packet length average = 1
Total in-flight flits = 58 (58 measured)
====== Peak Queue Occupancy Statistics (Absolute Max) ======
  Overall Max VC Occupancy = 1
  Overall Max Buffer Occupancy = 2
latency change    = 0.0044118
throughput change = 0.0920178
Class 0:
Packet latency average = 13.4224
	minimum = 8
	maximum = 28
	95th percentile = 20.5
	99th percentile = 23.5
Network latency average = 13.4224
	minimum = 8
	maximum = 28
	95th percentile = 20.5
	99th percentile = 23.5
Slowest packet = 24564
Flit latency average = 13.4221
	minimum = 8
	maximum = 28
	95th percentile = 20.5
	99th percentile = 23.5
Slowest flit = 24564
Fragmentation average = 0
	minimum = 0
	maximum = 0
Injected packet rate average = 0.300259
	minimum = 0.298476 (at node 6)
	maximum = 0.303571 (at node 7)
Accepted packet rate average = 0.300069
	minimum = 0.298286 (at node 3)
	maximum = 0.303286 (at node 8)
Injected flit rate average = 0.300259
	minimum = 0.298476 (at node 6)
	maximum = 0.303571 (at node 7)
Accepted flit rate average= 0.300069
	minimum = 0.298286 (at node 3)
	maximum = 0.303286 (at node 8)
Injected packet length average = 1
Accepted packet length average = 1
Total in-flight flits = 54 (54 measured)
====== Peak Queue Occupancy Statistics (Absolute Max) ======
  Overall Max VC Occupancy = 1
  Overall Max Buffer Occupancy = 2
latency change    = 0.00426394
throughput change = 0.0830497
Class 0:
Packet latency average = 13.4888
	minimum = 8
	maximum = 29
	95th percentile = 21.5
	99th percentile = 24.5
Network latency average = 13.4888
	minimum = 8
	maximum = 29
	95th percentile = 21.5
	99th percentile = 24.5
Slowest packet = 64672
Flit latency average = 13.4885
	minimum = 8
	maximum = 29
	95th percentile = 21.5
	99th percentile = 24.5
Slowest flit = 64672
Fragmentation average = 0
	minimum = 0
	maximum = 0
Injected packet rate average = 0.325829
	minimum = 0.322833 (at node 4)
	maximum = 0.330417 (at node 2)
Accepted packet rate average = 0.32563
	minimum = 0.322583 (at node 1)
	maximum = 0.330083 (at node 6)
Injected flit rate average = 0.325829
	minimum = 0.322833 (at node 4)
	maximum = 0.330417 (at node 2)
Accepted flit rate average= 0.32563
	minimum = 0.322583 (at node 1)
	maximum = 0.330083 (at node 6)
Injected packet length average = 1
Accepted packet length average = 1
Total in-flight flits = 61 (61 measured)
====== Peak Queue Occupancy Statistics (Absolute Max) ======
  Overall Max VC Occupancy = 1
  Overall Max Buffer Occupancy = 2
latency change    = 0.00491844
throughput change = 0.0784967
Class 0:
Packet latency average = 13.5491
	minimum = 8
	maximum = 29
	95th percentile = 21.5
	99th percentile = 24.5
Network latency average = 13.5491
	minimum = 8
	maximum = 29
	95th percentile = 21.5
	99th percentile = 24.5
Slowest packet = 64672
Flit latency average = 13.5488
	minimum = 8
	maximum = 29
	95th percentile = 21.5
	99th percentile = 24.5
Slowest flit = 64672
Fragmentation average = 0
	minimum = 0
	maximum = 0
Injected packet rate average = 0.350494
	minimum = 0.346889 (at node 4)
	maximum = 0.355333 (at node 2)
Accepted packet rate average = 0.350284
	minimum = 0.346778 (at node 1)
	maximum = 0.354926 (at node 6)
Injected flit rate average = 0.350494
	minimum = 0.346889 (at node 4)
	maximum = 0.355333 (at node 2)
Accepted flit rate average= 0.350284
	minimum = 0.346778 (at node 1)
	maximum = 0.354926 (at node 6)
Injected packet length average = 1
Accepted packet length average = 1
Total in-flight flits = 69 (69 measured)
====== Peak Queue Occupancy Statistics (Absolute Max) ======
  Overall Max VC Occupancy = 1
  Overall Max Buffer Occupancy = 2
latency change    = 0.00444943
throughput change = 0.0703838
Class 0:
Packet latency average = 13.6136
	minimum = 8
	maximum = 29
	95th percentile = 21.5
	99th percentile = 24.5
Network latency average = 13.6136
	minimum = 8
	maximum = 29
	95th percentile = 21.5
	99th percentile = 24.5
Slowest packet = 64672
Flit latency average = 13.6134
	minimum = 8
	maximum = 29
	95th percentile = 21.5
	99th percentile = 24.5
Slowest flit = 64672
Fragmentation average = 0
	minimum = 0
	maximum = 0
Injected packet rate average = 0.375241
	minimum = 0.371167 (at node 4)
	maximum = 0.378733 (at node 2)
Accepted packet rate average = 0.375026
	minimum = 0.370933 (at node 1)
	maximum = 0.378467 (at node 6)
Injected flit rate average = 0.375241
	minimum = 0.371167 (at node 4)
	maximum = 0.378733 (at node 2)
Accepted flit rate average= 0.375026
	minimum = 0.370933 (at node 1)
	maximum = 0.378467 (at node 6)
Injected packet length average = 1
Accepted packet length average = 1
Total in-flight flits = 76 (76 measured)
====== Peak Queue Occupancy Statistics (Absolute Max) ======
  Overall Max VC Occupancy = 1
  Overall Max Buffer Occupancy = 2
latency change    = 0.00473812
throughput change = 0.065974
Class 0:
Packet latency average = 13.6626
	minimum = 8
	maximum = 29
	95th percentile = 21.5
	99th percentile = 24.5
Network latency average = 13.6626
	minimum = 8
	maximum = 29
	95th percentile = 21.5
	99th percentile = 24.5
Slowest packet = 64672
Flit latency average = 13.6624
	minimum = 8
	maximum = 29
	95th percentile = 21.5
	99th percentile = 24.5
Slowest flit = 64672
Fragmentation average = 0
	minimum = 0
	maximum = 0
Injected packet rate average = 0.395616
	minimum = 0.392515 (at node 4)
	maximum = 0.399061 (at node 2)
Accepted packet rate average = 0.395421
	minimum = 0.392303 (at node 1)
	maximum = 0.398697 (at node 6)
Injected flit rate average = 0.395616
	minimum = 0.392515 (at node 4)
	maximum = 0.399061 (at node 2)
Accepted flit rate average= 0.395421
	minimum = 0.392303 (at node 1)
	maximum = 0.398697 (at node 6)
Injected packet length average = 1
Accepted packet length average = 1
Total in-flight flits = 76 (76 measured)
====== Peak Queue Occupancy Statistics (Absolute Max) ======
  Overall Max VC Occupancy = 1
  Overall Max Buffer Occupancy = 2
latency change    = 0.00358703
throughput change = 0.0515778
Class 0:
Packet latency average = 13.7005
	minimum = 8
	maximum = 29
	95th percentile = 21.5
	99th percentile = 24.5
Network latency average = 13.7005
	minimum = 8
	maximum = 29
	95th percentile = 21.5
	99th percentile = 24.5
Slowest packet = 64672
Flit latency average = 13.7003
	minimum = 8
	maximum = 29
	95th percentile = 21.5
	99th percentile = 24.5
Slowest flit = 64672
Fragmentation average = 0
	minimum = 0
	maximum = 0
Injected packet rate average = 0.412562
	minimum = 0.410056 (at node 4)
	maximum = 0.416444 (at node 2)
Accepted packet rate average = 0.412386
	minimum = 0.409917 (at node 1)
	maximum = 0.416139 (at node 6)
Injected flit rate average = 0.412562
	minimum = 0.410056 (at node 4)
	maximum = 0.416444 (at node 2)
Accepted flit rate average= 0.412386
	minimum = 0.409917 (at node 1)
	maximum = 0.416139 (at node 6)
Injected packet length average = 1
Accepted packet length average = 1
Total in-flight flits = 75 (75 measured)
====== Peak Queue Occupancy Statistics (Absolute Max) ======
  Overall Max VC Occupancy = 1
  Overall Max Buffer Occupancy = 2
latency change    = 0.00276464
throughput change = 0.0411385
Class 0:
Packet latency average = 13.7297
	minimum = 8
	maximum = 29
	95th percentile = 21.5
	99th percentile = 24.5
Network latency average = 13.7297
	minimum = 8
	maximum = 29
	95th percentile = 21.5
	99th percentile = 24.5
Slowest packet = 64672
Flit latency average = 13.7295
	minimum = 8
	maximum = 29
	95th percentile = 21.5
	99th percentile = 24.5
Slowest flit = 64672
Fragmentation average = 0
	minimum = 0
	maximum = 0
Injected packet rate average = 0.427174
	minimum = 0.424923 (at node 4)
	maximum = 0.430154 (at node 2)
Accepted packet rate average = 0.426986
	minimum = 0.424718 (at node 1)
	maximum = 0.429872 (at node 6)
Injected flit rate average = 0.427174
	minimum = 0.424923 (at node 4)
	maximum = 0.430154 (at node 2)
Accepted flit rate average= 0.426986
	minimum = 0.424718 (at node 1)
	maximum = 0.429872 (at node 6)
Injected packet length average = 1
Accepted packet length average = 1
Total in-flight flits = 84 (84 measured)
====== Peak Queue Occupancy Statistics (Absolute Max) ======
  Overall Max VC Occupancy = 1
  Overall Max Buffer Occupancy = 3
latency change    = 0.00212756
throughput change = 0.0341931
Class 0:
Packet latency average = 13.7495
	minimum = 8
	maximum = 29
	95th percentile = 21.5
	99th percentile = 24.5
Network latency average = 13.7495
	minimum = 8
	maximum = 29
	95th percentile = 21.5
	99th percentile = 24.5
Slowest packet = 64672
Flit latency average = 13.7494
	minimum = 8
	maximum = 29
	95th percentile = 21.5
	99th percentile = 24.5
Slowest flit = 64672
Fragmentation average = 0
	minimum = 0
	maximum = 0
Injected packet rate average = 0.439183
	minimum = 0.437667 (at node 5)
	maximum = 0.441571 (at node 2)
Accepted packet rate average = 0.439021
	minimum = 0.437524 (at node 2)
	maximum = 0.44131 (at node 6)
Injected flit rate average = 0.439183
	minimum = 0.437667 (at node 5)
	maximum = 0.441571 (at node 2)
Accepted flit rate average= 0.439021
	minimum = 0.437524 (at node 2)
	maximum = 0.44131 (at node 6)
Injected packet length average = 1
Accepted packet length average = 1
Total in-flight flits = 79 (79 measured)
====== Peak Queue Occupancy Statistics (Absolute Max) ======
  Overall Max VC Occupancy = 1
  Overall Max Buffer Occupancy = 3
latency change    = 0.00144313
throughput change = 0.0274142
Draining all recorded packets ...
Draining remaining packets ...
Time taken is 48045 cycles
====== Overall Traffic Statistics ======
====== Traffic class 0 ======
Packet latency average = 13.7501 (1 samples)
	minimum = 8 (1 samples)
	maximum = 29 (1 samples)
Network latency average = 13.7501 (1 samples)
	minimum = 8 (1 samples)
	maximum = 29 (1 samples)
Flit latency average = 13.7499 (1 samples)
	minimum = 8 (1 samples)
	maximum = 29 (1 samples)
Fragmentation average = 0 (1 samples)
	minimum = 0 (1 samples)
	maximum = 0 (1 samples)
Injected packet rate average = 0.439183 (1 samples)
	minimum = 0.437667 (1 samples)
	maximum = 0.441571 (1 samples)
Accepted packet rate average = 0.439021 (1 samples)
	minimum = 0.437524 (1 samples)
	maximum = 0.44131 (1 samples)
Injected flit rate average = 0.439183 (1 samples)
	minimum = 0.437667 (1 samples)
	maximum = 0.441571 (1 samples)
Accepted flit rate average = 0.439021 (1 samples)
	minimum = 0.437524 (1 samples)
	maximum = 0.44131 (1 samples)
Injected packet size average = 1 (1 samples)
Accepted packet size average = 1 (1 samples)
Hops average = 3.66811 (1 samples)
Total run time 5.79894

