BEGIN Configuration File: D:\noc_huawei\noc\booksim2-noc_speedup_study\booksim2-noc_speedup_study\tests\data\results\p3_ramp_to_0p6_hold_current_scheme\tmp_configs\ordered_fill_hybrid_xy_racke_s2201.config
num_vcs     = 48;
vc_buf_size = 16;
wait_for_tail_credit = 1;

vc_allocator = islip;
sw_allocator = islip;
alloc_iters  = 16;

credit_delay   = 2;
routing_delay  = 0;
vc_alloc_delay = 1;
sw_alloc_delay = 1;
st_final_delay = 1;

input_speedup     = 1;
output_speedup    = 1;
internal_speedup  = 2.0;

sim_type = latency;
latency_thres  = 100000.0;
sim_count      = 1;
queue_sample_period_cycles = 0;

topology = mesh;
k  = 3;
n  = 2;

hybrid_transition_mode = linear_prob;
hybrid_xy_low_threshold = 0.35;
hybrid_racke_high_threshold = 0.65;
hybrid_buffer_soft_threshold = 0.50;
hybrid_buffer_hard_threshold = 0.85;
hybrid_buffer_release_threshold = 0.35;
hybrid_rate_soft_threshold = 0.55;
hybrid_rate_hard_threshold = 0.90;
hybrid_rate_weight = 0.25;
hybrid_congestion_alpha = 0.25;
hybrid_racke_increase_step = 0.25;
hybrid_racke_decrease_step = 0.10;
hybrid_epoch_cycles = 200;
hybrid_hold_cycles = 600;
hybrid_enable_midflight_override = 1;
hybrid_feedback_delay_per_hop = 1;
hybrid_flow_increase_step = 0.20;
hybrid_flow_decrease_step = 0.08;
hybrid_flow_hard_threshold = 0.95;

packet_size = 1;

scheduled_injection_rates = {0.10,0.20,0.30};
scheduled_phase_cycles = {1000,1000,1000};
scheduled_default_phase_cycles = 1000;

custom_perm_array = {4,7,6,5,1,2,0,8,3};
warmup_periods = 2;
seed = 2201;
hybrid_flow_hotspot_alpha = 0.85;
injection_process = ordered_fill;
perm_seed = 2201;
ordered_injection_phase_cycles = {3000,3000,3000,3000,3000,3000,3000,3000,3000,3000,3000,3000,3000,3000,3000,3000};
routing_function = hybrid_xy_racke;
injection_rate = 0.6;
max_samples = 24;
ordered_injection_source_order = {4,7,6,5,1,2,0,8,3};
hybrid_flow_hotspot_threshold = 0.8;
ordered_injection_flow_peak_rate = 0.6;
ordered_injection_coefficients = {0.0833333333333333,0.166666666666667,0.25,0.333333333333333,0.416666666666667,0.5,0.583333333333333,0.666666666666667,0.75,0.833333333333333,0.916666666666667,1.0,1.0,1.0,1.0,1.0};
hybrid_stats_window_cycles = 3000;
traffic = custom_perm;
sample_period = 3000;

END Configuration File: D:\noc_huawei\noc\booksim2-noc_speedup_study\booksim2-noc_speedup_study\tests\data\results\p3_ramp_to_0p6_hold_current_scheme\tmp_configs\ordered_fill_hybrid_xy_racke_s2201.config
Class 0:
Packet latency average = 8
	minimum = 8
	maximum = 8
	95th percentile = 8.5
	99th percentile = 8.5
Network latency average = 8
	minimum = 8
	maximum = 8
	95th percentile = 8.5
	99th percentile = 8.5
Slowest packet = 0
Flit latency average = 8
	minimum = 8
	maximum = 8
	95th percentile = 8.5
	99th percentile = 8.5
Slowest flit = 0
Fragmentation average = 0
	minimum = 0
	maximum = 0
Injected packet rate average = 0.0502222
	minimum = 0 (at node 0)
	maximum = 0.452 (at node 4)
Accepted packet rate average = 0.050037
	minimum = 0 (at node 0)
	maximum = 0.450333 (at node 1)
Injected flit rate average = 0.0502222
	minimum = 0 (at node 0)
	maximum = 0.452 (at node 4)
Accepted flit rate average= 0.050037
	minimum = 0 (at node 0)
	maximum = 0.450333 (at node 1)
Injected packet length average = 1
Accepted packet length average = 1
Total in-flight flits = 5 (0 measured)
====== Peak Queue Occupancy Statistics (Absolute Max) ======
  Overall Max VC Occupancy = 1
  Overall Max Buffer Occupancy = 1
latency change    = 1
throughput change = 1
Class 0:
Packet latency average = 8
	minimum = 8
	maximum = 8
	95th percentile = 8.5
	99th percentile = 8.5
Network latency average = 8
	minimum = 8
	maximum = 8
	95th percentile = 8.5
	99th percentile = 8.5
Slowest packet = 0
Flit latency average = 8
	minimum = 8
	maximum = 8
	95th percentile = 8.5
	99th percentile = 8.5
Slowest flit = 0
Fragmentation average = 0
	minimum = 0
	maximum = 0
Injected packet rate average = 0.0735926
	minimum = 0 (at node 0)
	maximum = 0.516333 (at node 4)
Accepted packet rate average = 0.0735185
	minimum = 0 (at node 0)
	maximum = 0.516 (at node 1)
Injected flit rate average = 0.0735926
	minimum = 0 (at node 0)
	maximum = 0.516333 (at node 4)
Accepted flit rate average= 0.0735185
	minimum = 0 (at node 0)
	maximum = 0.516 (at node 1)
Injected packet length average = 1
Accepted packet length average = 1
Total in-flight flits = 4 (0 measured)
====== Peak Queue Occupancy Statistics (Absolute Max) ======
  Overall Max VC Occupancy = 1
  Overall Max Buffer Occupancy = 1
latency change    = 0
throughput change = 0.319395
Warmed up ...Time used is 6000 cycles
Class 0:
Packet latency average = 8.32649
	minimum = 8
	maximum = 11
	95th percentile = 11.5
	99th percentile = 11.5
Network latency average = 8.32649
	minimum = 8
	maximum = 11
	95th percentile = 11.5
	99th percentile = 11.5
Slowest packet = 4004
Flit latency average = 8.32617
	minimum = 8
	maximum = 11
	95th percentile = 11.5
	99th percentile = 11.5
Slowest flit = 4004
Fragmentation average = 0
	minimum = 0
	maximum = 0
Injected packet rate average = 0.150333
	minimum = 0 (at node 0)
	maximum = 0.608333 (at node 7)
Accepted packet rate average = 0.149889
	minimum = 0 (at node 2)
	maximum = 0.606667 (at node 8)
Injected flit rate average = 0.150333
	minimum = 0 (at node 0)
	maximum = 0.608333 (at node 7)
Accepted flit rate average= 0.149889
	minimum = 0 (at node 2)
	maximum = 0.606667 (at node 8)
Injected packet length average = 1
Accepted packet length average = 1
Total in-flight flits = 16 (16 measured)
====== Peak Queue Occupancy Statistics (Absolute Max) ======
  Overall Max VC Occupancy = 1
  Overall Max Buffer Occupancy = 1
latency change    = 0.039211
throughput change = 0.509513
Class 0:
Packet latency average = 8.70433
	minimum = 8
	maximum = 11
	95th percentile = 11.5
	99th percentile = 11.5
Network latency average = 8.70433
	minimum = 8
	maximum = 11
	95th percentile = 11.5
	99th percentile = 11.5
Slowest packet = 4004
Flit latency average = 8.70404
	minimum = 8
	maximum = 11
	95th percentile = 11.5
	99th percentile = 11.5
Slowest flit = 4004
Fragmentation average = 0
	minimum = 0
	maximum = 0
Injected packet rate average = 0.175574
	minimum = 0 (at node 0)
	maximum = 0.6055 (at node 4)
Accepted packet rate average = 0.175259
	minimum = 0 (at node 2)
	maximum = 0.604833 (at node 1)
Injected flit rate average = 0.175574
	minimum = 0 (at node 0)
	maximum = 0.6055 (at node 4)
Accepted flit rate average= 0.175259
	minimum = 0 (at node 2)
	maximum = 0.604833 (at node 1)
Injected packet length average = 1
Accepted packet length average = 1
Total in-flight flits = 21 (21 measured)
====== Peak Queue Occupancy Statistics (Absolute Max) ======
  Overall Max VC Occupancy = 1
  Overall Max Buffer Occupancy = 1
latency change    = 0.0434087
throughput change = 0.144759
Class 0:
Packet latency average = 8.74341
	minimum = 8
	maximum = 11
	95th percentile = 11.5
	99th percentile = 11.5
Network latency average = 8.74341
	minimum = 8
	maximum = 11
	95th percentile = 11.5
	99th percentile = 11.5
Slowest packet = 4004
Flit latency average = 8.74323
	minimum = 8
	maximum = 11
	95th percentile = 11.5
	99th percentile = 11.5
Slowest flit = 4004
Fragmentation average = 0
	minimum = 0
	maximum = 0
Injected packet rate average = 0.201284
	minimum = 0 (at node 0)
	maximum = 0.604778 (at node 4)
Accepted packet rate average = 0.201074
	minimum = 0 (at node 3)
	maximum = 0.604222 (at node 1)
Injected flit rate average = 0.201284
	minimum = 0 (at node 0)
	maximum = 0.604778 (at node 4)
Accepted flit rate average= 0.201074
	minimum = 0 (at node 3)
	maximum = 0.604222 (at node 1)
Injected packet length average = 1
Accepted packet length average = 1
Total in-flight flits = 21 (21 measured)
====== Peak Queue Occupancy Statistics (Absolute Max) ======
  Overall Max VC Occupancy = 1
  Overall Max Buffer Occupancy = 1
latency change    = 0.00446957
throughput change = 0.128385
Class 0:
Packet latency average = 8.82874
	minimum = 8
	maximum = 11
	95th percentile = 11.5
	99th percentile = 11.5
Network latency average = 8.82874
	minimum = 8
	maximum = 11
	95th percentile = 11.5
	99th percentile = 11.5
Slowest packet = 4004
Flit latency average = 8.82861
	minimum = 8
	maximum = 11
	95th percentile = 11.5
	99th percentile = 11.5
Slowest flit = 4004
Fragmentation average = 0
	minimum = 0
	maximum = 0
Injected packet rate average = 0.226694
	minimum = 0 (at node 0)
	maximum = 0.60675 (at node 4)
Accepted packet rate average = 0.226519
	minimum = 0 (at node 3)
	maximum = 0.606667 (at node 1)
Injected flit rate average = 0.226694
	minimum = 0 (at node 0)
	maximum = 0.60675 (at node 4)
Accepted flit rate average= 0.226519
	minimum = 0 (at node 3)
	maximum = 0.606667 (at node 1)
Injected packet length average = 1
Accepted packet length average = 1
Total in-flight flits = 23 (23 measured)
====== Peak Queue Occupancy Statistics (Absolute Max) ======
  Overall Max VC Occupancy = 1
  Overall Max Buffer Occupancy = 1
latency change    = 0.00966473
throughput change = 0.112328
Class 0:
Packet latency average = 9.03888
	minimum = 8
	maximum = 17
	95th percentile = 11.5
	99th percentile = 17.5
Network latency average = 9.03888
	minimum = 8
	maximum = 17
	95th percentile = 11.5
	99th percentile = 17.5
Slowest packet = 28526
Flit latency average = 9.03876
	minimum = 8
	maximum = 17
	95th percentile = 11.5
	99th percentile = 17.5
Slowest flit = 28526
Fragmentation average = 0
	minimum = 0
	maximum = 0
Injected packet rate average = 0.251348
	minimum = 0 (at node 0)
	maximum = 0.6056 (at node 4)
Accepted packet rate average = 0.251133
	minimum = 0 (at node 3)
	maximum = 0.6054 (at node 1)
Injected flit rate average = 0.251348
	minimum = 0 (at node 0)
	maximum = 0.6056 (at node 4)
Accepted flit rate average= 0.251133
	minimum = 0 (at node 3)
	maximum = 0.6054 (at node 1)
Injected packet length average = 1
Accepted packet length average = 1
Total in-flight flits = 33 (33 measured)
====== Peak Queue Occupancy Statistics (Absolute Max) ======
  Overall Max VC Occupancy = 1
  Overall Max Buffer Occupancy = 1
latency change    = 0.0232484
throughput change = 0.0980149
Class 0:
Packet latency average = 9.39707
	minimum = 8
	maximum = 17
	95th percentile = 17.5
	99th percentile = 17.5
Network latency average = 9.39707
	minimum = 8
	maximum = 17
	95th percentile = 17.5
	99th percentile = 17.5
Slowest packet = 28526
Flit latency average = 9.39695
	minimum = 8
	maximum = 17
	95th percentile = 17.5
	99th percentile = 17.5
Slowest flit = 28526
Fragmentation average = 0
	minimum = 0
	maximum = 0
Injected packet rate average = 0.27634
	minimum = 0 (at node 0)
	maximum = 0.605 (at node 4)
Accepted packet rate average = 0.276105
	minimum = 0 (at node 3)
	maximum = 0.604889 (at node 1)
Injected flit rate average = 0.27634
	minimum = 0 (at node 0)
	maximum = 0.605 (at node 4)
Accepted flit rate average= 0.276105
	minimum = 0 (at node 3)
	maximum = 0.604889 (at node 1)
Injected packet length average = 1
Accepted packet length average = 1
Total in-flight flits = 42 (42 measured)
====== Peak Queue Occupancy Statistics (Absolute Max) ======
  Overall Max VC Occupancy = 1
  Overall Max Buffer Occupancy = 1
latency change    = 0.0381173
throughput change = 0.0904424
Class 0:
Packet latency average = 11.9477
	minimum = 8
	maximum = 184
	95th percentile = 29.5
	99th percentile = 69.5
Network latency average = 11.9477
	minimum = 8
	maximum = 184
	95th percentile = 29.5
	99th percentile = 69.5
Slowest packet = 58695
Flit latency average = 11.9475
	minimum = 8
	maximum = 184
	95th percentile = 29.5
	99th percentile = 69.5
Slowest flit = 58695
Fragmentation average = 0
	minimum = 0
	maximum = 0
Injected packet rate average = 0.301138
	minimum = 0 (at node 3)
	maximum = 0.605333 (at node 4)
Accepted packet rate average = 0.30055
	minimum = 0 (at node 3)
	maximum = 0.605143 (at node 1)
Injected flit rate average = 0.301138
	minimum = 0 (at node 3)
	maximum = 0.605333 (at node 4)
Accepted flit rate average= 0.30055
	minimum = 0 (at node 3)
	maximum = 0.605143 (at node 1)
Injected packet length average = 1
Accepted packet length average = 1
Total in-flight flits = 115 (115 measured)
====== Peak Queue Occupancy Statistics (Absolute Max) ======
  Overall Max VC Occupancy = 1
  Overall Max Buffer Occupancy = 37
latency change    = 0.213485
throughput change = 0.0813352
Class 0:
Packet latency average = 14.9105
	minimum = 8
	maximum = 515
	95th percentile = 54.5
	99th percentile = 96.5
Network latency average = 14.9105
	minimum = 8
	maximum = 515
	95th percentile = 54.5
	99th percentile = 96.5
Slowest packet = 67808
Flit latency average = 14.9101
	minimum = 8
	maximum = 515
	95th percentile = 54.5
	99th percentile = 96.5
Slowest flit = 67808
Fragmentation average = 0
	minimum = 0
	maximum = 0
Injected packet rate average = 0.326366
	minimum = 0 (at node 3)
	maximum = 0.605083 (at node 4)
Accepted packet rate average = 0.325704
	minimum = 0 (at node 5)
	maximum = 0.604833 (at node 1)
Injected flit rate average = 0.326366
	minimum = 0 (at node 3)
	maximum = 0.605083 (at node 4)
Accepted flit rate average= 0.325704
	minimum = 0 (at node 5)
	maximum = 0.604833 (at node 1)
Injected packet length average = 1
Accepted packet length average = 1
Total in-flight flits = 147 (147 measured)
====== Peak Queue Occupancy Statistics (Absolute Max) ======
  Overall Max VC Occupancy = 1
  Overall Max Buffer Occupancy = 45
latency change    = 0.198702
throughput change = 0.077228
Class 0:
Packet latency average = 19.7449
	minimum = 8
	maximum = 547
	95th percentile = 70.5
	99th percentile = 162.5
Network latency average = 19.652
	minimum = 8
	maximum = 547
	95th percentile = 69.5
	99th percentile = 162.5
Slowest packet = 84770
Flit latency average = 19.6515
	minimum = 8
	maximum = 547
	95th percentile = 69.5
	99th percentile = 162.5
Slowest flit = 84770
Fragmentation average = 0
	minimum = 0
	maximum = 0
Injected packet rate average = 0.351025
	minimum = 0.0164815 (at node 3)
	maximum = 0.602963 (at node 4)
Accepted packet rate average = 0.350284
	minimum = 0.0164074 (at node 5)
	maximum = 0.602852 (at node 1)
Injected flit rate average = 0.351025
	minimum = 0.0164815 (at node 3)
	maximum = 0.602963 (at node 4)
Accepted flit rate average= 0.350284
	minimum = 0.0164074 (at node 5)
	maximum = 0.602852 (at node 1)
Injected packet length average = 1
Accepted packet length average = 1
Total in-flight flits = 184 (184 measured)
====== Peak Queue Occupancy Statistics (Absolute Max) ======
  Overall Max VC Occupancy = 1
  Overall Max Buffer Occupancy = 48
latency change    = 0.244842
throughput change = 0.0701723
Class 0:
Packet latency average = 23.1432
	minimum = 8
	maximum = 664
	95th percentile = 80.5
	99th percentile = 199.5
Network latency average = 22.9626
	minimum = 8
	maximum = 664
	95th percentile = 79.5
	99th percentile = 197.5
Slowest packet = 92415
Flit latency average = 22.962
	minimum = 8
	maximum = 664
	95th percentile = 79.5
	99th percentile = 197.5
Slowest flit = 92415
Fragmentation average = 0
	minimum = 0
	maximum = 0
Injected packet rate average = 0.375615
	minimum = 0.0747333 (at node 3)
	maximum = 0.601767 (at node 4)
Accepted packet rate average = 0.375052
	minimum = 0.0745333 (at node 5)
	maximum = 0.601667 (at node 1)
Injected flit rate average = 0.375615
	minimum = 0.0747333 (at node 3)
	maximum = 0.601767 (at node 4)
Accepted flit rate average= 0.375052
	minimum = 0.0745333 (at node 5)
	maximum = 0.601667 (at node 1)
Injected packet length average = 1
Accepted packet length average = 1
Total in-flight flits = 156 (156 measured)
====== Peak Queue Occupancy Statistics (Absolute Max) ======
  Overall Max VC Occupancy = 1
  Overall Max Buffer Occupancy = 48
latency change    = 0.146838
throughput change = 0.0660386
Class 0:
Packet latency average = 25.4115
	minimum = 8
	maximum = 664
	95th percentile = 89.5
	99th percentile = 211.5
Network latency average = 25.2282
	minimum = 8
	maximum = 664
	95th percentile = 88.5
	99th percentile = 209.5
Slowest packet = 92415
Flit latency average = 25.2277
	minimum = 8
	maximum = 664
	95th percentile = 88.5
	99th percentile = 209.5
Slowest flit = 92415
Fragmentation average = 0
	minimum = 0
	maximum = 0
Injected packet rate average = 0.396104
	minimum = 0.122273 (at node 3)
	maximum = 0.601455 (at node 4)
Accepted packet rate average = 0.395313
	minimum = 0.122061 (at node 5)
	maximum = 0.601394 (at node 1)
Injected flit rate average = 0.396104
	minimum = 0.122273 (at node 3)
	maximum = 0.601455 (at node 4)
Accepted flit rate average= 0.395313
	minimum = 0.122061 (at node 5)
	maximum = 0.601394 (at node 1)
Injected packet length average = 1
Accepted packet length average = 1
Total in-flight flits = 239 (239 measured)
====== Peak Queue Occupancy Statistics (Absolute Max) ======
  Overall Max VC Occupancy = 1
  Overall Max Buffer Occupancy = 48
latency change    = 0.0892651
throughput change = 0.0512537
Class 0:
Packet latency average = 26.9412
	minimum = 8
	maximum = 664
	95th percentile = 97.5
	99th percentile = 212.5
Network latency average = 26.7736
	minimum = 8
	maximum = 664
	95th percentile = 95.5
	99th percentile = 210.5
Slowest packet = 92415
Flit latency average = 26.773
	minimum = 8
	maximum = 664
	95th percentile = 95.5
	99th percentile = 210.5
Slowest flit = 92415
Fragmentation average = 0
	minimum = 0
	maximum = 0
Injected packet rate average = 0.41266
	minimum = 0.162306 (at node 3)
	maximum = 0.600722 (at node 4)
Accepted packet rate average = 0.412006
	minimum = 0.162139 (at node 5)
	maximum = 0.600583 (at node 1)
Injected flit rate average = 0.41266
	minimum = 0.162306 (at node 3)
	maximum = 0.600722 (at node 4)
Accepted flit rate average= 0.412006
	minimum = 0.162139 (at node 5)
	maximum = 0.600583 (at node 1)
Injected packet length average = 1
Accepted packet length average = 1
Total in-flight flits = 216 (216 measured)
====== Peak Queue Occupancy Statistics (Absolute Max) ======
  Overall Max VC Occupancy = 1
  Overall Max Buffer Occupancy = 48
latency change    = 0.0567777
throughput change = 0.0405165
Class 0:
Packet latency average = 28.4352
	minimum = 8
	maximum = 664
	95th percentile = 102.5
	99th percentile = 221.5
Network latency average = 28.2614
	minimum = 8
	maximum = 664
	95th percentile = 101.5
	99th percentile = 219.5
Slowest packet = 92415
Flit latency average = 28.2609
	minimum = 8
	maximum = 664
	95th percentile = 101.5
	99th percentile = 219.5
Slowest flit = 92415
Fragmentation average = 0
	minimum = 0
	maximum = 0
Injected packet rate average = 0.426783
	minimum = 0.194179 (at node 3)
	maximum = 0.600487 (at node 4)
Accepted packet rate average = 0.426274
	minimum = 0.194 (at node 5)
	maximum = 0.600333 (at node 1)
Injected flit rate average = 0.426783
	minimum = 0.194179 (at node 3)
	maximum = 0.600487 (at node 4)
Accepted flit rate average= 0.426274
	minimum = 0.194 (at node 5)
	maximum = 0.600333 (at node 1)
Injected packet length average = 1
Accepted packet length average = 1
Total in-flight flits = 183 (183 measured)
====== Peak Queue Occupancy Statistics (Absolute Max) ======
  Overall Max VC Occupancy = 1
  Overall Max Buffer Occupancy = 48
latency change    = 0.0525423
throughput change = 0.0334699
Class 0:
Packet latency average = 29.4648
	minimum = 8
	maximum = 664
	95th percentile = 108.5
	99th percentile = 221.5
Network latency average = 29.3069
	minimum = 8
	maximum = 664
	95th percentile = 106.5
	99th percentile = 220.5
Slowest packet = 92415
Flit latency average = 29.3064
	minimum = 8
	maximum = 664
	95th percentile = 106.5
	99th percentile = 220.5
Slowest flit = 92415
Fragmentation average = 0
	minimum = 0
	maximum = 0
Injected packet rate average = 0.439045
	minimum = 0.223071 (at node 3)
	maximum = 0.600333 (at node 4)
Accepted packet rate average = 0.438556
	minimum = 0.222905 (at node 5)
	maximum = 0.600262 (at node 1)
Injected flit rate average = 0.439045
	minimum = 0.223071 (at node 3)
	maximum = 0.600333 (at node 4)
Accepted flit rate average= 0.438556
	minimum = 0.222905 (at node 5)
	maximum = 0.600262 (at node 1)
Injected packet length average = 1
Accepted packet length average = 1
Total in-flight flits = 189 (189 measured)
====== Peak Queue Occupancy Statistics (Absolute Max) ======
  Overall Max VC Occupancy = 1
  Overall Max Buffer Occupancy = 48
latency change    = 0.0349422
throughput change = 0.0280057
Class 0:
Packet latency average = 30.1493
	minimum = 8
	maximum = 664
	95th percentile = 109.5
	99th percentile = 222.5
Network latency average = 30.003
	minimum = 8
	maximum = 664
	95th percentile = 109.5
	99th percentile = 221.5
Slowest packet = 92415
Flit latency average = 30.0025
	minimum = 8
	maximum = 664
	95th percentile = 109.5
	99th percentile = 221.5
Slowest flit = 92415
Fragmentation average = 0
	minimum = 0
	maximum = 0
Injected packet rate average = 0.449881
	minimum = 0.249533 (at node 3)
	maximum = 0.600867 (at node 4)
Accepted packet rate average = 0.449368
	minimum = 0.249356 (at node 5)
	maximum = 0.6008 (at node 1)
Injected flit rate average = 0.449881
	minimum = 0.249533 (at node 3)
	maximum = 0.600867 (at node 4)
Accepted flit rate average= 0.449368
	minimum = 0.249356 (at node 5)
	maximum = 0.6008 (at node 1)
Injected packet length average = 1
Accepted packet length average = 1
Total in-flight flits = 212 (212 measured)
====== Peak Queue Occupancy Statistics (Absolute Max) ======
  Overall Max VC Occupancy = 1
  Overall Max Buffer Occupancy = 48
latency change    = 0.0227038
throughput change = 0.0240612
Class 0:
Packet latency average = 30.9793
	minimum = 8
	maximum = 664
	95th percentile = 113.5
	99th percentile = 229.5
Network latency average = 30.8258
	minimum = 8
	maximum = 664
	95th percentile = 112.5
	99th percentile = 228.5
Slowest packet = 92415
Flit latency average = 30.8253
	minimum = 8
	maximum = 664
	95th percentile = 112.5
	99th percentile = 228.5
Slowest flit = 92415
Fragmentation average = 0
	minimum = 0
	maximum = 0
Injected packet rate average = 0.459484
	minimum = 0.271083 (at node 3)
	maximum = 0.600875 (at node 4)
Accepted packet rate average = 0.4591
	minimum = 0.270979 (at node 5)
	maximum = 0.600792 (at node 1)
Injected flit rate average = 0.459484
	minimum = 0.271083 (at node 3)
	maximum = 0.600875 (at node 4)
Accepted flit rate average= 0.4591
	minimum = 0.270979 (at node 5)
	maximum = 0.600792 (at node 1)
Injected packet length average = 1
Accepted packet length average = 1
Total in-flight flits = 170 (170 measured)
====== Peak Queue Occupancy Statistics (Absolute Max) ======
  Overall Max VC Occupancy = 1
  Overall Max Buffer Occupancy = 48
latency change    = 0.0267925
throughput change = 0.0211972
Draining all recorded packets ...
Draining remaining packets ...
Time taken is 54402 cycles
====== Overall Traffic Statistics ======
====== Traffic class 0 ======
Packet latency average = 31.0306 (1 samples)
	minimum = 8 (1 samples)
	maximum = 664 (1 samples)
Network latency average = 30.8772 (1 samples)
	minimum = 8 (1 samples)
	maximum = 664 (1 samples)
Flit latency average = 30.9014 (1 samples)
	minimum = 8 (1 samples)
	maximum = 664 (1 samples)
Fragmentation average = 0 (1 samples)
	minimum = 0 (1 samples)
	maximum = 0 (1 samples)
Injected packet rate average = 0.459484 (1 samples)
	minimum = 0.271083 (1 samples)
	maximum = 0.600875 (1 samples)
Accepted packet rate average = 0.4591 (1 samples)
	minimum = 0.270979 (1 samples)
	maximum = 0.600792 (1 samples)
Injected flit rate average = 0.459484 (1 samples)
	minimum = 0.271083 (1 samples)
	maximum = 0.600875 (1 samples)
Accepted flit rate average = 0.4591 (1 samples)
	minimum = 0.270979 (1 samples)
	maximum = 0.600792 (1 samples)
Injected packet size average = 1 (1 samples)
Accepted packet size average = 1 (1 samples)
Hops average = 2.96629 (1 samples)
Total run time 9.43992
====== Hybrid Routing Split Statistics ======
XY packets = 166884
Racke packets = 37257
XY fraction = 0.817494
Racke fraction = 0.182506
Flow (0 -> 4) alpha=0.147347 xy_packets=11061 racke_packets=6788 racke_fraction=0.380301
Flow (1 -> 7) alpha=0.146581 xy_packets=15880 racke_packets=6768 racke_fraction=0.298834
Flow (2 -> 6) alpha=0.407225 xy_packets=13125 racke_packets=7316 racke_fraction=0.357908
Flow (3 -> 5) alpha=0 xy_packets=13198 racke_packets=0 racke_fraction=0
Flow (4 -> 1) alpha=0.145592 xy_packets=25357 racke_packets=6747 racke_fraction=0.210161
Flow (5 -> 2) alpha=0 xy_packets=24930 racke_packets=0 racke_fraction=0
Flow (6 -> 0) alpha=0.407225 xy_packets=22799 racke_packets=4905 racke_fraction=0.17705
Flow (7 -> 8) alpha=0 xy_packets=29809 racke_packets=0 racke_fraction=0
Flow (8 -> 3) alpha=0.407225 xy_packets=10725 racke_packets=4733 racke_fraction=0.306184
====== Hybrid Routing Window Statistics ======
Window [0,3000) xy_packets=1356 racke_packets=0 xy_fraction=1
Window [3000,6000) xy_packets=2618 racke_packets=0 xy_fraction=1
Window [6000,9000) xy_packets=4059 racke_packets=0 xy_fraction=1
Window [9000,12000) xy_packets=5422 racke_packets=0 xy_fraction=1
Window [12000,15000) xy_packets=6823 racke_packets=0 xy_fraction=1
Window [15000,18000) xy_packets=8179 racke_packets=0 xy_fraction=1
Window [18000,21000) xy_packets=9449 racke_packets=0 xy_fraction=1
Window [21000,24000) xy_packets=10835 racke_packets=0 xy_fraction=1
Window [24000,27000) xy_packets=11941 racke_packets=207 xy_fraction=0.98296
Window [27000,30000) xy_packets=10679 racke_packets=2901 xy_fraction=0.786377
Window [30000,33000) xy_packets=10763 racke_packets=4041 xy_fraction=0.727033
Window [33000,36000) xy_packets=11844 racke_packets=4273 xy_fraction=0.734876
Window [36000,39000) xy_packets=12084 racke_packets=4143 xy_fraction=0.744685
Window [39000,42000) xy_packets=12035 racke_packets=4024 xy_fraction=0.749424
Window [42000,45000) xy_packets=11690 racke_packets=4409 xy_fraction=0.726132
Window [45000,48000) xy_packets=12193 racke_packets=3965 xy_fraction=0.754611
Window [48000,51000) xy_packets=12039 racke_packets=4204 xy_fraction=0.741181
Window [51000,54000) xy_packets=11536 racke_packets=4759 xy_fraction=0.707947
Window [54000,57000) xy_packets=1339 racke_packets=331 xy_fraction=0.801796

