BEGIN Configuration File: D:\noc_huawei\noc\booksim2-noc_speedup_study\booksim2-noc_speedup_study\tests\data\results\p3_ramp_to_0p6_hold_current_scheme\tmp_configs\ordered_fill_hybrid_xy_racke_s2202.config
num_vcs     = 48;
vc_buf_size = 16;
wait_for_tail_credit = 1;

vc_allocator = islip;
sw_allocator = islip;
alloc_iters  = 16;

credit_delay   = 2;
routing_delay  = 0;
vc_alloc_delay = 1;
sw_alloc_delay = 1;
st_final_delay = 1;

input_speedup     = 1;
output_speedup    = 1;
internal_speedup  = 2.0;

sim_type = latency;
latency_thres  = 100000.0;
sim_count      = 1;
queue_sample_period_cycles = 0;

topology = mesh;
k  = 3;
n  = 2;

hybrid_transition_mode = linear_prob;
hybrid_xy_low_threshold = 0.35;
hybrid_racke_high_threshold = 0.65;
hybrid_buffer_soft_threshold = 0.50;
hybrid_buffer_hard_threshold = 0.85;
hybrid_buffer_release_threshold = 0.35;
hybrid_rate_soft_threshold = 0.55;
hybrid_rate_hard_threshold = 0.90;
hybrid_rate_weight = 0.25;
hybrid_congestion_alpha = 0.25;
hybrid_racke_increase_step = 0.25;
hybrid_racke_decrease_step = 0.10;
hybrid_epoch_cycles = 200;
hybrid_hold_cycles = 600;
hybrid_enable_midflight_override = 1;
hybrid_feedback_delay_per_hop = 1;
hybrid_flow_increase_step = 0.20;
hybrid_flow_decrease_step = 0.08;
hybrid_flow_hard_threshold = 0.95;

packet_size = 1;

scheduled_injection_rates = {0.10,0.20,0.30};
scheduled_phase_cycles = {1000,1000,1000};
scheduled_default_phase_cycles = 1000;

custom_perm_array = {4,7,6,5,1,2,0,8,3};
warmup_periods = 2;
seed = 2202;
hybrid_flow_hotspot_alpha = 0.85;
injection_process = ordered_fill;
perm_seed = 2202;
ordered_injection_phase_cycles = {3000,3000,3000,3000,3000,3000,3000,3000,3000,3000,3000,3000,3000,3000,3000,3000};
routing_function = hybrid_xy_racke;
injection_rate = 0.6;
max_samples = 24;
ordered_injection_source_order = {4,7,6,5,1,2,0,8,3};
hybrid_flow_hotspot_threshold = 0.8;
ordered_injection_flow_peak_rate = 0.6;
ordered_injection_coefficients = {0.0833333333333333,0.166666666666667,0.25,0.333333333333333,0.416666666666667,0.5,0.583333333333333,0.666666666666667,0.75,0.833333333333333,0.916666666666667,1.0,1.0,1.0,1.0,1.0};
hybrid_stats_window_cycles = 3000;
traffic = custom_perm;
sample_period = 3000;

END Configuration File: D:\noc_huawei\noc\booksim2-noc_speedup_study\booksim2-noc_speedup_study\tests\data\results\p3_ramp_to_0p6_hold_current_scheme\tmp_configs\ordered_fill_hybrid_xy_racke_s2202.config
Class 0:
Packet latency average = 8
	minimum = 8
	maximum = 8
	95th percentile = 8.5
	99th percentile = 8.5
Network latency average = 8
	minimum = 8
	maximum = 8
	95th percentile = 8.5
	99th percentile = 8.5
Slowest packet = 0
Flit latency average = 8
	minimum = 8
	maximum = 8
	95th percentile = 8.5
	99th percentile = 8.5
Slowest flit = 0
Fragmentation average = 0
	minimum = 0
	maximum = 0
Injected packet rate average = 0.0497778
	minimum = 0 (at node 0)
	maximum = 0.448 (at node 4)
Accepted packet rate average = 0.0496667
	minimum = 0 (at node 0)
	maximum = 0.447 (at node 1)
Injected flit rate average = 0.0497778
	minimum = 0 (at node 0)
	maximum = 0.448 (at node 4)
Accepted flit rate average= 0.0496667
	minimum = 0 (at node 0)
	maximum = 0.447 (at node 1)
Injected packet length average = 1
Accepted packet length average = 1
Total in-flight flits = 3 (0 measured)
====== Peak Queue Occupancy Statistics (Absolute Max) ======
  Overall Max VC Occupancy = 1
  Overall Max Buffer Occupancy = 1
latency change    = 1
throughput change = 1
Class 0:
Packet latency average = 8
	minimum = 8
	maximum = 8
	95th percentile = 8.5
	99th percentile = 8.5
Network latency average = 8
	minimum = 8
	maximum = 8
	95th percentile = 8.5
	99th percentile = 8.5
Slowest packet = 0
Flit latency average = 8
	minimum = 8
	maximum = 8
	95th percentile = 8.5
	99th percentile = 8.5
Slowest flit = 0
Fragmentation average = 0
	minimum = 0
	maximum = 0
Injected packet rate average = 0.0752963
	minimum = 0 (at node 0)
	maximum = 0.523667 (at node 4)
Accepted packet rate average = 0.0752037
	minimum = 0 (at node 0)
	maximum = 0.523167 (at node 1)
Injected flit rate average = 0.0752963
	minimum = 0 (at node 0)
	maximum = 0.523667 (at node 4)
Accepted flit rate average= 0.0752037
	minimum = 0 (at node 0)
	maximum = 0.523167 (at node 1)
Injected packet length average = 1
Accepted packet length average = 1
Total in-flight flits = 5 (0 measured)
====== Peak Queue Occupancy Statistics (Absolute Max) ======
  Overall Max VC Occupancy = 1
  Overall Max Buffer Occupancy = 1
latency change    = 0
throughput change = 0.339572
Warmed up ...Time used is 6000 cycles
Class 0:
Packet latency average = 8.34337
	minimum = 8
	maximum = 11
	95th percentile = 11.5
	99th percentile = 11.5
Network latency average = 8.34337
	minimum = 8
	maximum = 11
	95th percentile = 11.5
	99th percentile = 11.5
Slowest packet = 4067
Flit latency average = 8.34294
	minimum = 8
	maximum = 11
	95th percentile = 11.5
	99th percentile = 11.5
Slowest flit = 4067
Fragmentation average = 0
	minimum = 0
	maximum = 0
Injected packet rate average = 0.149185
	minimum = 0 (at node 0)
	maximum = 0.595 (at node 4)
Accepted packet rate average = 0.149037
	minimum = 0 (at node 2)
	maximum = 0.595333 (at node 1)
Injected flit rate average = 0.149185
	minimum = 0 (at node 0)
	maximum = 0.595 (at node 4)
Accepted flit rate average= 0.149037
	minimum = 0 (at node 2)
	maximum = 0.595333 (at node 1)
Injected packet length average = 1
Accepted packet length average = 1
Total in-flight flits = 9 (9 measured)
====== Peak Queue Occupancy Statistics (Absolute Max) ======
  Overall Max VC Occupancy = 1
  Overall Max Buffer Occupancy = 1
latency change    = 0.0411547
throughput change = 0.495403
Class 0:
Packet latency average = 8.7194
	minimum = 8
	maximum = 11
	95th percentile = 11.5
	99th percentile = 11.5
Network latency average = 8.7194
	minimum = 8
	maximum = 11
	95th percentile = 11.5
	99th percentile = 11.5
Slowest packet = 4067
Flit latency average = 8.71902
	minimum = 8
	maximum = 11
	95th percentile = 11.5
	99th percentile = 11.5
Slowest flit = 4067
Fragmentation average = 0
	minimum = 0
	maximum = 0
Injected packet rate average = 0.175611
	minimum = 0 (at node 0)
	maximum = 0.602 (at node 7)
Accepted packet rate average = 0.175315
	minimum = 0 (at node 2)
	maximum = 0.601333 (at node 8)
Injected flit rate average = 0.175611
	minimum = 0 (at node 0)
	maximum = 0.602 (at node 7)
Accepted flit rate average= 0.175315
	minimum = 0 (at node 2)
	maximum = 0.601333 (at node 8)
Injected packet length average = 1
Accepted packet length average = 1
Total in-flight flits = 21 (21 measured)
====== Peak Queue Occupancy Statistics (Absolute Max) ======
  Overall Max VC Occupancy = 1
  Overall Max Buffer Occupancy = 1
latency change    = 0.0431262
throughput change = 0.149889
Class 0:
Packet latency average = 8.75401
	minimum = 8
	maximum = 11
	95th percentile = 11.5
	99th percentile = 11.5
Network latency average = 8.75401
	minimum = 8
	maximum = 11
	95th percentile = 11.5
	99th percentile = 11.5
Slowest packet = 4067
Flit latency average = 8.75378
	minimum = 8
	maximum = 11
	95th percentile = 11.5
	99th percentile = 11.5
Slowest flit = 4067
Fragmentation average = 0
	minimum = 0
	maximum = 0
Injected packet rate average = 0.201025
	minimum = 0 (at node 0)
	maximum = 0.600778 (at node 4)
Accepted packet rate average = 0.200864
	minimum = 0 (at node 3)
	maximum = 0.600667 (at node 1)
Injected flit rate average = 0.201025
	minimum = 0 (at node 0)
	maximum = 0.600778 (at node 4)
Accepted flit rate average= 0.200864
	minimum = 0 (at node 3)
	maximum = 0.600667 (at node 1)
Injected packet length average = 1
Accepted packet length average = 1
Total in-flight flits = 18 (18 measured)
====== Peak Queue Occupancy Statistics (Absolute Max) ======
  Overall Max VC Occupancy = 1
  Overall Max Buffer Occupancy = 1
latency change    = 0.00395336
throughput change = 0.127197
Class 0:
Packet latency average = 8.83648
	minimum = 8
	maximum = 11
	95th percentile = 11.5
	99th percentile = 11.5
Network latency average = 8.83648
	minimum = 8
	maximum = 11
	95th percentile = 11.5
	99th percentile = 11.5
Slowest packet = 4067
Flit latency average = 8.83631
	minimum = 8
	maximum = 11
	95th percentile = 11.5
	99th percentile = 11.5
Slowest flit = 4067
Fragmentation average = 0
	minimum = 0
	maximum = 0
Injected packet rate average = 0.225648
	minimum = 0 (at node 0)
	maximum = 0.60125 (at node 7)
Accepted packet rate average = 0.225528
	minimum = 0 (at node 3)
	maximum = 0.60125 (at node 8)
Injected flit rate average = 0.225648
	minimum = 0 (at node 0)
	maximum = 0.60125 (at node 7)
Accepted flit rate average= 0.225528
	minimum = 0 (at node 3)
	maximum = 0.60125 (at node 8)
Injected packet length average = 1
Accepted packet length average = 1
Total in-flight flits = 18 (18 measured)
====== Peak Queue Occupancy Statistics (Absolute Max) ======
  Overall Max VC Occupancy = 1
  Overall Max Buffer Occupancy = 1
latency change    = 0.00933289
throughput change = 0.109359
Class 0:
Packet latency average = 9.03717
	minimum = 8
	maximum = 17
	95th percentile = 11.5
	99th percentile = 17.5
Network latency average = 9.03717
	minimum = 8
	maximum = 17
	95th percentile = 11.5
	99th percentile = 17.5
Slowest packet = 28447
Flit latency average = 9.03701
	minimum = 8
	maximum = 17
	95th percentile = 11.5
	99th percentile = 17.5
Slowest flit = 28447
Fragmentation average = 0
	minimum = 0
	maximum = 0
Injected packet rate average = 0.250163
	minimum = 0 (at node 0)
	maximum = 0.5992 (at node 4)
Accepted packet rate average = 0.24997
	minimum = 0 (at node 3)
	maximum = 0.599067 (at node 1)
Injected flit rate average = 0.250163
	minimum = 0 (at node 0)
	maximum = 0.5992 (at node 4)
Accepted flit rate average= 0.24997
	minimum = 0 (at node 3)
	maximum = 0.599067 (at node 1)
Injected packet length average = 1
Accepted packet length average = 1
Total in-flight flits = 31 (31 measured)
====== Peak Queue Occupancy Statistics (Absolute Max) ======
  Overall Max VC Occupancy = 1
  Overall Max Buffer Occupancy = 1
latency change    = 0.0222065
throughput change = 0.097782
Class 0:
Packet latency average = 9.3863
	minimum = 8
	maximum = 17
	95th percentile = 11.5
	99th percentile = 17.5
Network latency average = 9.3863
	minimum = 8
	maximum = 17
	95th percentile = 11.5
	99th percentile = 17.5
Slowest packet = 28447
Flit latency average = 9.38614
	minimum = 8
	maximum = 17
	95th percentile = 11.5
	99th percentile = 17.5
Slowest flit = 28447
Fragmentation average = 0
	minimum = 0
	maximum = 0
Injected packet rate average = 0.275006
	minimum = 0 (at node 0)
	maximum = 0.599167 (at node 7)
Accepted packet rate average = 0.274796
	minimum = 0 (at node 3)
	maximum = 0.599167 (at node 8)
Injected flit rate average = 0.275006
	minimum = 0 (at node 0)
	maximum = 0.599167 (at node 7)
Accepted flit rate average= 0.274796
	minimum = 0 (at node 3)
	maximum = 0.599167 (at node 8)
Injected packet length average = 1
Accepted packet length average = 1
Total in-flight flits = 39 (39 measured)
====== Peak Queue Occupancy Statistics (Absolute Max) ======
  Overall Max VC Occupancy = 1
  Overall Max Buffer Occupancy = 1
latency change    = 0.0371962
throughput change = 0.090343
Class 0:
Packet latency average = 12.775
	minimum = 8
	maximum = 262
	95th percentile = 28.5
	99th percentile = 89.5
Network latency average = 12.773
	minimum = 8
	maximum = 262
	95th percentile = 28.5
	99th percentile = 89.5
Slowest packet = 58744
Flit latency average = 12.7726
	minimum = 8
	maximum = 262
	95th percentile = 28.5
	99th percentile = 89.5
Slowest flit = 58744
Fragmentation average = 0
	minimum = 0
	maximum = 0
Injected packet rate average = 0.300042
	minimum = 0 (at node 3)
	maximum = 0.598476 (at node 7)
Accepted packet rate average = 0.299556
	minimum = 0 (at node 3)
	maximum = 0.598429 (at node 8)
Injected flit rate average = 0.300042
	minimum = 0 (at node 3)
	maximum = 0.598476 (at node 7)
Accepted flit rate average= 0.299556
	minimum = 0 (at node 3)
	maximum = 0.598429 (at node 8)
Injected packet length average = 1
Accepted packet length average = 1
Total in-flight flits = 97 (97 measured)
====== Peak Queue Occupancy Statistics (Absolute Max) ======
  Overall Max VC Occupancy = 1
  Overall Max Buffer Occupancy = 48
latency change    = 0.26526
throughput change = 0.0826533
Class 0:
Packet latency average = 16.1968
	minimum = 8
	maximum = 840
	95th percentile = 58.5
	99th percentile = 136.5
Network latency average = 16.1473
	minimum = 8
	maximum = 840
	95th percentile = 58.5
	99th percentile = 135.5
Slowest packet = 69566
Flit latency average = 16.1467
	minimum = 8
	maximum = 840
	95th percentile = 58.5
	99th percentile = 135.5
Slowest flit = 69566
Fragmentation average = 0
	minimum = 0
	maximum = 0
Injected packet rate average = 0.325338
	minimum = 0 (at node 3)
	maximum = 0.598292 (at node 4)
Accepted packet rate average = 0.324787
	minimum = 0 (at node 5)
	maximum = 0.598208 (at node 1)
Injected flit rate average = 0.325338
	minimum = 0 (at node 3)
	maximum = 0.598292 (at node 4)
Accepted flit rate average= 0.324787
	minimum = 0 (at node 5)
	maximum = 0.598208 (at node 1)
Injected packet length average = 1
Accepted packet length average = 1
Total in-flight flits = 124 (124 measured)
====== Peak Queue Occupancy Statistics (Absolute Max) ======
  Overall Max VC Occupancy = 1
  Overall Max Buffer Occupancy = 48
latency change    = 0.211263
throughput change = 0.0776862
Class 0:
Packet latency average = 20.8403
	minimum = 8
	maximum = 840
	95th percentile = 77.5
	99th percentile = 178.5
Network latency average = 20.7956
	minimum = 8
	maximum = 840
	95th percentile = 77.5
	99th percentile = 178.5
Slowest packet = 69566
Flit latency average = 20.7949
	minimum = 8
	maximum = 840
	95th percentile = 77.5
	99th percentile = 178.5
Slowest flit = 69566
Fragmentation average = 0
	minimum = 0
	maximum = 0
Injected packet rate average = 0.350617
	minimum = 0.0173333 (at node 3)
	maximum = 0.599704 (at node 7)
Accepted packet rate average = 0.349823
	minimum = 0.0172593 (at node 5)
	maximum = 0.599519 (at node 8)
Injected flit rate average = 0.350617
	minimum = 0.0173333 (at node 3)
	maximum = 0.599704 (at node 7)
Accepted flit rate average= 0.349823
	minimum = 0.0172593 (at node 5)
	maximum = 0.599519 (at node 8)
Injected packet length average = 1
Accepted packet length average = 1
Total in-flight flits = 198 (198 measured)
====== Peak Queue Occupancy Statistics (Absolute Max) ======
  Overall Max VC Occupancy = 1
  Overall Max Buffer Occupancy = 48
latency change    = 0.222816
throughput change = 0.0715676
Class 0:
Packet latency average = 24.2252
	minimum = 8
	maximum = 840
	95th percentile = 92.5
	99th percentile = 202.5
Network latency average = 24.1492
	minimum = 8
	maximum = 840
	95th percentile = 91.5
	99th percentile = 202.5
Slowest packet = 69566
Flit latency average = 24.1484
	minimum = 8
	maximum = 840
	95th percentile = 91.5
	99th percentile = 202.5
Slowest flit = 69566
Fragmentation average = 0
	minimum = 0
	maximum = 0
Injected packet rate average = 0.375567
	minimum = 0.0762 (at node 3)
	maximum = 0.600467 (at node 7)
Accepted packet rate average = 0.374881
	minimum = 0.0759 (at node 5)
	maximum = 0.6004 (at node 8)
Injected flit rate average = 0.375567
	minimum = 0.0762 (at node 3)
	maximum = 0.600467 (at node 7)
Accepted flit rate average= 0.374881
	minimum = 0.0759 (at node 5)
	maximum = 0.6004 (at node 8)
Injected packet length average = 1
Accepted packet length average = 1
Total in-flight flits = 190 (190 measured)
====== Peak Queue Occupancy Statistics (Absolute Max) ======
  Overall Max VC Occupancy = 1
  Overall Max Buffer Occupancy = 48
latency change    = 0.139724
throughput change = 0.0668436
Class 0:
Packet latency average = 26.6123
	minimum = 8
	maximum = 840
	95th percentile = 99.5
	99th percentile = 218.5
Network latency average = 26.5189
	minimum = 8
	maximum = 840
	95th percentile = 98.5
	99th percentile = 217.5
Slowest packet = 69566
Flit latency average = 26.5181
	minimum = 8
	maximum = 840
	95th percentile = 98.5
	99th percentile = 217.5
Slowest flit = 69566
Fragmentation average = 0
	minimum = 0
	maximum = 0
Injected packet rate average = 0.395892
	minimum = 0.123364 (at node 3)
	maximum = 0.601061 (at node 7)
Accepted packet rate average = 0.395114
	minimum = 0.123121 (at node 5)
	maximum = 0.600939 (at node 8)
Injected flit rate average = 0.395892
	minimum = 0.123364 (at node 3)
	maximum = 0.601061 (at node 7)
Accepted flit rate average= 0.395114
	minimum = 0.123121 (at node 5)
	maximum = 0.600939 (at node 8)
Injected packet length average = 1
Accepted packet length average = 1
Total in-flight flits = 236 (236 measured)
====== Peak Queue Occupancy Statistics (Absolute Max) ======
  Overall Max VC Occupancy = 1
  Overall Max Buffer Occupancy = 48
latency change    = 0.0897001
throughput change = 0.0512079
Class 0:
Packet latency average = 28.5651
	minimum = 8
	maximum = 840
	95th percentile = 105.5
	99th percentile = 230.5
Network latency average = 28.4365
	minimum = 8
	maximum = 840
	95th percentile = 105.5
	99th percentile = 230.5
Slowest packet = 69566
Flit latency average = 28.4358
	minimum = 8
	maximum = 840
	95th percentile = 105.5
	99th percentile = 230.5
Slowest flit = 69566
Fragmentation average = 0
	minimum = 0
	maximum = 0
Injected packet rate average = 0.413281
	minimum = 0.162972 (at node 3)
	maximum = 0.60175 (at node 7)
Accepted packet rate average = 0.412602
	minimum = 0.162833 (at node 5)
	maximum = 0.601722 (at node 8)
Injected flit rate average = 0.413281
	minimum = 0.162972 (at node 3)
	maximum = 0.60175 (at node 7)
Accepted flit rate average= 0.412602
	minimum = 0.162833 (at node 5)
	maximum = 0.601722 (at node 8)
Injected packet length average = 1
Accepted packet length average = 1
Total in-flight flits = 225 (225 measured)
====== Peak Queue Occupancy Statistics (Absolute Max) ======
  Overall Max VC Occupancy = 1
  Overall Max Buffer Occupancy = 48
latency change    = 0.0683628
throughput change = 0.0423832
Class 0:
Packet latency average = 29.9645
	minimum = 8
	maximum = 840
	95th percentile = 112.5
	99th percentile = 232.5
Network latency average = 29.842
	minimum = 8
	maximum = 840
	95th percentile = 112.5
	99th percentile = 231.5
Slowest packet = 69566
Flit latency average = 29.8413
	minimum = 8
	maximum = 840
	95th percentile = 112.5
	99th percentile = 231.5
Slowest flit = 69566
Fragmentation average = 0
	minimum = 0
	maximum = 0
Injected packet rate average = 0.427627
	minimum = 0.196769 (at node 3)
	maximum = 0.601769 (at node 7)
Accepted packet rate average = 0.427009
	minimum = 0.196564 (at node 5)
	maximum = 0.601718 (at node 8)
Injected flit rate average = 0.427627
	minimum = 0.196769 (at node 3)
	maximum = 0.601769 (at node 7)
Accepted flit rate average= 0.427009
	minimum = 0.196564 (at node 5)
	maximum = 0.601718 (at node 8)
Injected packet length average = 1
Accepted packet length average = 1
Total in-flight flits = 222 (222 measured)
====== Peak Queue Occupancy Statistics (Absolute Max) ======
  Overall Max VC Occupancy = 1
  Overall Max Buffer Occupancy = 48
latency change    = 0.0467018
throughput change = 0.0337387
Class 0:
Packet latency average = 31.0082
	minimum = 8
	maximum = 840
	95th percentile = 117.5
	99th percentile = 232.5
Network latency average = 30.8951
	minimum = 8
	maximum = 840
	95th percentile = 116.5
	99th percentile = 231.5
Slowest packet = 69566
Flit latency average = 30.8944
	minimum = 8
	maximum = 840
	95th percentile = 116.5
	99th percentile = 231.5
Slowest flit = 69566
Fragmentation average = 0
	minimum = 0
	maximum = 0
Injected packet rate average = 0.43987
	minimum = 0.225786 (at node 3)
	maximum = 0.601619 (at node 7)
Accepted packet rate average = 0.439206
	minimum = 0.225595 (at node 5)
	maximum = 0.601524 (at node 8)
Injected flit rate average = 0.43987
	minimum = 0.225786 (at node 3)
	maximum = 0.601619 (at node 7)
Accepted flit rate average= 0.439206
	minimum = 0.225595 (at node 5)
	maximum = 0.601524 (at node 8)
Injected packet length average = 1
Accepted packet length average = 1
Total in-flight flits = 256 (256 measured)
====== Peak Queue Occupancy Statistics (Absolute Max) ======
  Overall Max VC Occupancy = 1
  Overall Max Buffer Occupancy = 48
latency change    = 0.0336597
throughput change = 0.0277724
Class 0:
Packet latency average = 31.9841
	minimum = 8
	maximum = 840
	95th percentile = 121.5
	99th percentile = 233.5
Network latency average = 31.8708
	minimum = 8
	maximum = 840
	95th percentile = 121.5
	99th percentile = 233.5
Slowest packet = 69566
Flit latency average = 31.8701
	minimum = 8
	maximum = 840
	95th percentile = 121.5
	99th percentile = 233.5
Slowest flit = 69566
Fragmentation average = 0
	minimum = 0
	maximum = 0
Injected packet rate average = 0.450528
	minimum = 0.2514 (at node 3)
	maximum = 0.601489 (at node 7)
Accepted packet rate average = 0.450042
	minimum = 0.251267 (at node 5)
	maximum = 0.601444 (at node 8)
Injected flit rate average = 0.450528
	minimum = 0.2514 (at node 3)
	maximum = 0.601489 (at node 7)
Accepted flit rate average= 0.450042
	minimum = 0.251267 (at node 5)
	maximum = 0.601444 (at node 8)
Injected packet length average = 1
Accepted packet length average = 1
Total in-flight flits = 202 (202 measured)
====== Peak Queue Occupancy Statistics (Absolute Max) ======
  Overall Max VC Occupancy = 1
  Overall Max Buffer Occupancy = 48
latency change    = 0.0305134
throughput change = 0.0240769
Draining all recorded packets ...
Draining remaining packets ...
Time taken is 51414 cycles
====== Overall Traffic Statistics ======
====== Traffic class 0 ======
Packet latency average = 32.0473 (1 samples)
	minimum = 8 (1 samples)
	maximum = 840 (1 samples)
Network latency average = 31.9341 (1 samples)
	minimum = 8 (1 samples)
	maximum = 840 (1 samples)
Flit latency average = 31.9429 (1 samples)
	minimum = 8 (1 samples)
	maximum = 840 (1 samples)
Fragmentation average = 0 (1 samples)
	minimum = 0 (1 samples)
	maximum = 0 (1 samples)
Injected packet rate average = 0.450528 (1 samples)
	minimum = 0.2514 (1 samples)
	maximum = 0.601489 (1 samples)
Accepted packet rate average = 0.450042 (1 samples)
	minimum = 0.251267 (1 samples)
	maximum = 0.601444 (1 samples)
Injected flit rate average = 0.450528 (1 samples)
	minimum = 0.2514 (1 samples)
	maximum = 0.601489 (1 samples)
Accepted flit rate average = 0.450042 (1 samples)
	minimum = 0.251267 (1 samples)
	maximum = 0.601444 (1 samples)
Injected packet size average = 1 (1 samples)
Accepted packet size average = 1 (1 samples)
Hops average = 2.95003 (1 samples)
Total run time 8.76433
====== Hybrid Routing Split Statistics ======
XY packets = 155231
Racke packets = 33004
XY fraction = 0.824666
Racke fraction = 0.175334
Flow (0 -> 4) alpha=0.351325 xy_packets=9917 racke_packets=5956 racke_fraction=0.375228
Flow (1 -> 7) alpha=0.352221 xy_packets=14901 racke_packets=5923 racke_fraction=0.284431
Flow (2 -> 6) alpha=0.350572 xy_packets=12057 racke_packets=6615 racke_fraction=0.354274
Flow (3 -> 5) alpha=0 xy_packets=11514 racke_packets=0 racke_fraction=0
Flow (4 -> 1) alpha=0.348712 xy_packets=24322 racke_packets=5903 racke_fraction=0.195302
Flow (5 -> 2) alpha=0 xy_packets=23319 racke_packets=0 racke_fraction=0
Flow (6 -> 0) alpha=0.197022 xy_packets=21480 racke_packets=4346 racke_fraction=0.16828
Flow (7 -> 8) alpha=0 xy_packets=28185 racke_packets=0 racke_fraction=0
Flow (8 -> 3) alpha=0.197002 xy_packets=9536 racke_packets=4261 racke_fraction=0.308835
====== Hybrid Routing Window Statistics ======
Window [0,3000) xy_packets=1344 racke_packets=0 xy_fraction=1
Window [3000,6000) xy_packets=2722 racke_packets=0 xy_fraction=1
Window [6000,9000) xy_packets=4028 racke_packets=0 xy_fraction=1
Window [9000,12000) xy_packets=5455 racke_packets=0 xy_fraction=1
Window [12000,15000) xy_packets=6800 racke_packets=0 xy_fraction=1
Window [15000,18000) xy_packets=8087 racke_packets=0 xy_fraction=1
Window [18000,21000) xy_packets=9402 racke_packets=0 xy_fraction=1
Window [21000,24000) xy_packets=10779 racke_packets=0 xy_fraction=1
Window [24000,27000) xy_packets=11484 racke_packets=673 xy_fraction=0.944641
Window [27000,30000) xy_packets=10693 racke_packets=2872 xy_fraction=0.788279
Window [30000,33000) xy_packets=10831 racke_packets=4096 xy_fraction=0.725598
Window [33000,36000) xy_packets=12128 racke_packets=4075 xy_fraction=0.748503
Window [36000,39000) xy_packets=11758 racke_packets=4419 xy_fraction=0.726834
Window [39000,42000) xy_packets=11823 racke_packets=4500 xy_fraction=0.724315
Window [42000,45000) xy_packets=12296 racke_packets=3898 xy_fraction=0.759294
Window [45000,48000) xy_packets=12274 racke_packets=3900 xy_fraction=0.758872
Window [48000,51000) xy_packets=12054 racke_packets=4139 xy_fraction=0.744396
Window [51000,54000) xy_packets=1273 racke_packets=432 xy_fraction=0.746628

