BEGIN Configuration File: D:\noc_huawei\noc\booksim2-noc_speedup_study\booksim2-noc_speedup_study\tests\data\results\p3_ramp_to_0p6_hold_current_scheme\tmp_configs\ordered_fill_hybrid_xy_racke_s2203.config
num_vcs     = 48;
vc_buf_size = 16;
wait_for_tail_credit = 1;

vc_allocator = islip;
sw_allocator = islip;
alloc_iters  = 16;

credit_delay   = 2;
routing_delay  = 0;
vc_alloc_delay = 1;
sw_alloc_delay = 1;
st_final_delay = 1;

input_speedup     = 1;
output_speedup    = 1;
internal_speedup  = 2.0;

sim_type = latency;
latency_thres  = 100000.0;
sim_count      = 1;
queue_sample_period_cycles = 0;

topology = mesh;
k  = 3;
n  = 2;

hybrid_transition_mode = linear_prob;
hybrid_xy_low_threshold = 0.35;
hybrid_racke_high_threshold = 0.65;
hybrid_buffer_soft_threshold = 0.50;
hybrid_buffer_hard_threshold = 0.85;
hybrid_buffer_release_threshold = 0.35;
hybrid_rate_soft_threshold = 0.55;
hybrid_rate_hard_threshold = 0.90;
hybrid_rate_weight = 0.25;
hybrid_congestion_alpha = 0.25;
hybrid_racke_increase_step = 0.25;
hybrid_racke_decrease_step = 0.10;
hybrid_epoch_cycles = 200;
hybrid_hold_cycles = 600;
hybrid_enable_midflight_override = 1;
hybrid_feedback_delay_per_hop = 1;
hybrid_flow_increase_step = 0.20;
hybrid_flow_decrease_step = 0.08;
hybrid_flow_hard_threshold = 0.95;

packet_size = 1;

scheduled_injection_rates = {0.10,0.20,0.30};
scheduled_phase_cycles = {1000,1000,1000};
scheduled_default_phase_cycles = 1000;

custom_perm_array = {4,7,6,5,1,2,0,8,3};
warmup_periods = 2;
seed = 2203;
hybrid_flow_hotspot_alpha = 0.85;
injection_process = ordered_fill;
perm_seed = 2203;
ordered_injection_phase_cycles = {3000,3000,3000,3000,3000,3000,3000,3000,3000,3000,3000,3000,3000,3000,3000,3000};
routing_function = hybrid_xy_racke;
injection_rate = 0.6;
max_samples = 24;
ordered_injection_source_order = {4,7,6,5,1,2,0,8,3};
hybrid_flow_hotspot_threshold = 0.8;
ordered_injection_flow_peak_rate = 0.6;
ordered_injection_coefficients = {0.0833333333333333,0.166666666666667,0.25,0.333333333333333,0.416666666666667,0.5,0.583333333333333,0.666666666666667,0.75,0.833333333333333,0.916666666666667,1.0,1.0,1.0,1.0,1.0};
hybrid_stats_window_cycles = 3000;
traffic = custom_perm;
sample_period = 3000;

END Configuration File: D:\noc_huawei\noc\booksim2-noc_speedup_study\booksim2-noc_speedup_study\tests\data\results\p3_ramp_to_0p6_hold_current_scheme\tmp_configs\ordered_fill_hybrid_xy_racke_s2203.config
Class 0:
Packet latency average = 8
	minimum = 8
	maximum = 8
	95th percentile = 8.5
	99th percentile = 8.5
Network latency average = 8
	minimum = 8
	maximum = 8
	95th percentile = 8.5
	99th percentile = 8.5
Slowest packet = 0
Flit latency average = 8
	minimum = 8
	maximum = 8
	95th percentile = 8.5
	99th percentile = 8.5
Slowest flit = 0
Fragmentation average = 0
	minimum = 0
	maximum = 0
Injected packet rate average = 0.0478148
	minimum = 0 (at node 0)
	maximum = 0.430333 (at node 4)
Accepted packet rate average = 0.0477407
	minimum = 0 (at node 0)
	maximum = 0.429667 (at node 1)
Injected flit rate average = 0.0478148
	minimum = 0 (at node 0)
	maximum = 0.430333 (at node 4)
Accepted flit rate average= 0.0477407
	minimum = 0 (at node 0)
	maximum = 0.429667 (at node 1)
Injected packet length average = 1
Accepted packet length average = 1
Total in-flight flits = 2 (0 measured)
====== Peak Queue Occupancy Statistics (Absolute Max) ======
  Overall Max VC Occupancy = 1
  Overall Max Buffer Occupancy = 1
latency change    = 1
throughput change = 1
Class 0:
Packet latency average = 8
	minimum = 8
	maximum = 8
	95th percentile = 8.5
	99th percentile = 8.5
Network latency average = 8
	minimum = 8
	maximum = 8
	95th percentile = 8.5
	99th percentile = 8.5
Slowest packet = 0
Flit latency average = 8
	minimum = 8
	maximum = 8
	95th percentile = 8.5
	99th percentile = 8.5
Slowest flit = 0
Fragmentation average = 0
	minimum = 0
	maximum = 0
Injected packet rate average = 0.073963
	minimum = 0 (at node 0)
	maximum = 0.5135 (at node 4)
Accepted packet rate average = 0.0737963
	minimum = 0 (at node 0)
	maximum = 0.512667 (at node 1)
Injected flit rate average = 0.073963
	minimum = 0 (at node 0)
	maximum = 0.5135 (at node 4)
Accepted flit rate average= 0.0737963
	minimum = 0 (at node 0)
	maximum = 0.512667 (at node 1)
Injected packet length average = 1
Accepted packet length average = 1
Total in-flight flits = 9 (0 measured)
====== Peak Queue Occupancy Statistics (Absolute Max) ======
  Overall Max VC Occupancy = 1
  Overall Max Buffer Occupancy = 1
latency change    = 0
throughput change = 0.353074
Warmed up ...Time used is 6000 cycles
Class 0:
Packet latency average = 8.32677
	minimum = 8
	maximum = 11
	95th percentile = 11.5
	99th percentile = 11.5
Network latency average = 8.32677
	minimum = 8
	maximum = 11
	95th percentile = 11.5
	99th percentile = 11.5
Slowest packet = 4000
Flit latency average = 8.32604
	minimum = 8
	maximum = 11
	95th percentile = 11.5
	99th percentile = 11.5
Slowest flit = 4000
Fragmentation average = 0
	minimum = 0
	maximum = 0
Injected packet rate average = 0.148963
	minimum = 0 (at node 0)
	maximum = 0.6 (at node 4)
Accepted packet rate average = 0.148926
	minimum = 0 (at node 2)
	maximum = 0.599667 (at node 1)
Injected flit rate average = 0.148963
	minimum = 0 (at node 0)
	maximum = 0.6 (at node 4)
Accepted flit rate average= 0.148926
	minimum = 0 (at node 2)
	maximum = 0.599667 (at node 1)
Injected packet length average = 1
Accepted packet length average = 1
Total in-flight flits = 10 (10 measured)
====== Peak Queue Occupancy Statistics (Absolute Max) ======
  Overall Max VC Occupancy = 1
  Overall Max Buffer Occupancy = 1
latency change    = 0.0392433
throughput change = 0.504476
Class 0:
Packet latency average = 8.71555
	minimum = 8
	maximum = 11
	95th percentile = 11.5
	99th percentile = 11.5
Network latency average = 8.71555
	minimum = 8
	maximum = 11
	95th percentile = 11.5
	99th percentile = 11.5
Slowest packet = 4000
Flit latency average = 8.71487
	minimum = 8
	maximum = 11
	95th percentile = 11.5
	99th percentile = 11.5
Slowest flit = 4000
Fragmentation average = 0
	minimum = 0
	maximum = 0
Injected packet rate average = 0.17563
	minimum = 0 (at node 0)
	maximum = 0.604833 (at node 7)
Accepted packet rate average = 0.175556
	minimum = 0 (at node 2)
	maximum = 0.605333 (at node 8)
Injected flit rate average = 0.17563
	minimum = 0 (at node 0)
	maximum = 0.604833 (at node 7)
Accepted flit rate average= 0.175556
	minimum = 0 (at node 2)
	maximum = 0.605333 (at node 8)
Injected packet length average = 1
Accepted packet length average = 1
Total in-flight flits = 13 (13 measured)
====== Peak Queue Occupancy Statistics (Absolute Max) ======
  Overall Max VC Occupancy = 1
  Overall Max Buffer Occupancy = 1
latency change    = 0.044608
throughput change = 0.151688
Class 0:
Packet latency average = 8.74949
	minimum = 8
	maximum = 11
	95th percentile = 11.5
	99th percentile = 11.5
Network latency average = 8.74949
	minimum = 8
	maximum = 11
	95th percentile = 11.5
	99th percentile = 11.5
Slowest packet = 4000
Flit latency average = 8.74907
	minimum = 8
	maximum = 11
	95th percentile = 11.5
	99th percentile = 11.5
Slowest flit = 4000
Fragmentation average = 0
	minimum = 0
	maximum = 0
Injected packet rate average = 0.200173
	minimum = 0 (at node 0)
	maximum = 0.600444 (at node 7)
Accepted packet rate average = 0.2
	minimum = 0 (at node 3)
	maximum = 0.600556 (at node 8)
Injected flit rate average = 0.200173
	minimum = 0 (at node 0)
	maximum = 0.600444 (at node 7)
Accepted flit rate average= 0.2
	minimum = 0 (at node 3)
	maximum = 0.600556 (at node 8)
Injected packet length average = 1
Accepted packet length average = 1
Total in-flight flits = 23 (23 measured)
====== Peak Queue Occupancy Statistics (Absolute Max) ======
  Overall Max VC Occupancy = 1
  Overall Max Buffer Occupancy = 1
latency change    = 0.00387882
throughput change = 0.122222
Class 0:
Packet latency average = 8.8287
	minimum = 8
	maximum = 11
	95th percentile = 11.5
	99th percentile = 11.5
Network latency average = 8.8287
	minimum = 8
	maximum = 11
	95th percentile = 11.5
	99th percentile = 11.5
Slowest packet = 4000
Flit latency average = 8.82839
	minimum = 8
	maximum = 11
	95th percentile = 11.5
	99th percentile = 11.5
Slowest flit = 4000
Fragmentation average = 0
	minimum = 0
	maximum = 0
Injected packet rate average = 0.22537
	minimum = 0 (at node 0)
	maximum = 0.602083 (at node 7)
Accepted packet rate average = 0.225269
	minimum = 0 (at node 3)
	maximum = 0.602167 (at node 8)
Injected flit rate average = 0.22537
	minimum = 0 (at node 0)
	maximum = 0.602083 (at node 7)
Accepted flit rate average= 0.225269
	minimum = 0 (at node 3)
	maximum = 0.602167 (at node 8)
Injected packet length average = 1
Accepted packet length average = 1
Total in-flight flits = 20 (20 measured)
====== Peak Queue Occupancy Statistics (Absolute Max) ======
  Overall Max VC Occupancy = 1
  Overall Max Buffer Occupancy = 1
latency change    = 0.0089719
throughput change = 0.112171
Class 0:
Packet latency average = 9.0326
	minimum = 8
	maximum = 17
	95th percentile = 11.5
	99th percentile = 17.5
Network latency average = 9.0326
	minimum = 8
	maximum = 17
	95th percentile = 11.5
	99th percentile = 17.5
Slowest packet = 28391
Flit latency average = 9.03233
	minimum = 8
	maximum = 17
	95th percentile = 11.5
	99th percentile = 17.5
Slowest flit = 28391
Fragmentation average = 0
	minimum = 0
	maximum = 0
Injected packet rate average = 0.2506
	minimum = 0 (at node 0)
	maximum = 0.6016 (at node 7)
Accepted packet rate average = 0.250459
	minimum = 0 (at node 3)
	maximum = 0.601667 (at node 8)
Injected flit rate average = 0.2506
	minimum = 0 (at node 0)
	maximum = 0.6016 (at node 7)
Accepted flit rate average= 0.250459
	minimum = 0 (at node 3)
	maximum = 0.601667 (at node 8)
Injected packet length average = 1
Accepted packet length average = 1
Total in-flight flits = 28 (28 measured)
====== Peak Queue Occupancy Statistics (Absolute Max) ======
  Overall Max VC Occupancy = 1
  Overall Max Buffer Occupancy = 1
latency change    = 0.0225738
throughput change = 0.100578
Class 0:
Packet latency average = 9.38304
	minimum = 8
	maximum = 17
	95th percentile = 11.5
	99th percentile = 17.5
Network latency average = 9.38304
	minimum = 8
	maximum = 17
	95th percentile = 11.5
	99th percentile = 17.5
Slowest packet = 28391
Flit latency average = 9.38276
	minimum = 8
	maximum = 17
	95th percentile = 11.5
	99th percentile = 17.5
Slowest flit = 28391
Fragmentation average = 0
	minimum = 0
	maximum = 0
Injected packet rate average = 0.275333
	minimum = 0 (at node 0)
	maximum = 0.600111 (at node 7)
Accepted packet rate average = 0.275148
	minimum = 0 (at node 3)
	maximum = 0.600167 (at node 8)
Injected flit rate average = 0.275333
	minimum = 0 (at node 0)
	maximum = 0.600111 (at node 7)
Accepted flit rate average= 0.275148
	minimum = 0 (at node 3)
	maximum = 0.600167 (at node 8)
Injected packet length average = 1
Accepted packet length average = 1
Total in-flight flits = 39 (39 measured)
====== Peak Queue Occupancy Statistics (Absolute Max) ======
  Overall Max VC Occupancy = 1
  Overall Max Buffer Occupancy = 1
latency change    = 0.0373478
throughput change = 0.0897294
Class 0:
Packet latency average = 11.9246
	minimum = 8
	maximum = 223
	95th percentile = 21.5
	99th percentile = 66.5
Network latency average = 11.9246
	minimum = 8
	maximum = 223
	95th percentile = 21.5
	99th percentile = 66.5
Slowest packet = 59801
Flit latency average = 11.924
	minimum = 8
	maximum = 223
	95th percentile = 21.5
	99th percentile = 66.5
Slowest flit = 59801
Fragmentation average = 0
	minimum = 0
	maximum = 0
Injected packet rate average = 0.30028
	minimum = 0 (at node 3)
	maximum = 0.602 (at node 7)
Accepted packet rate average = 0.299741
	minimum = 0 (at node 3)
	maximum = 0.601952 (at node 8)
Injected flit rate average = 0.30028
	minimum = 0 (at node 3)
	maximum = 0.602 (at node 7)
Accepted flit rate average= 0.299741
	minimum = 0 (at node 3)
	maximum = 0.601952 (at node 8)
Injected packet length average = 1
Accepted packet length average = 1
Total in-flight flits = 111 (111 measured)
====== Peak Queue Occupancy Statistics (Absolute Max) ======
  Overall Max VC Occupancy = 1
  Overall Max Buffer Occupancy = 36
latency change    = 0.213136
throughput change = 0.0820462
Class 0:
Packet latency average = 15.0669
	minimum = 8
	maximum = 412
	95th percentile = 54.5
	99th percentile = 104.5
Network latency average = 15.0569
	minimum = 8
	maximum = 412
	95th percentile = 54.5
	99th percentile = 104.5
Slowest packet = 70403
Flit latency average = 15.056
	minimum = 8
	maximum = 412
	95th percentile = 54.5
	99th percentile = 104.5
Slowest flit = 70403
Fragmentation average = 0
	minimum = 0
	maximum = 0
Injected packet rate average = 0.32506
	minimum = 0 (at node 3)
	maximum = 0.602417 (at node 7)
Accepted packet rate average = 0.324528
	minimum = 0 (at node 5)
	maximum = 0.602333 (at node 8)
Injected flit rate average = 0.32506
	minimum = 0 (at node 3)
	maximum = 0.602417 (at node 7)
Accepted flit rate average= 0.324528
	minimum = 0 (at node 5)
	maximum = 0.602333 (at node 8)
Injected packet length average = 1
Accepted packet length average = 1
Total in-flight flits = 124 (124 measured)
====== Peak Queue Occupancy Statistics (Absolute Max) ======
  Overall Max VC Occupancy = 1
  Overall Max Buffer Occupancy = 48
latency change    = 0.208559
throughput change = 0.0763788
Class 0:
Packet latency average = 20.1648
	minimum = 8
	maximum = 572
	95th percentile = 72.5
	99th percentile = 173.5
Network latency average = 20.074
	minimum = 8
	maximum = 572
	95th percentile = 71.5
	99th percentile = 172.5
Slowest packet = 77058
Flit latency average = 20.0727
	minimum = 8
	maximum = 572
	95th percentile = 71.5
	99th percentile = 172.5
Slowest flit = 77058
Fragmentation average = 0
	minimum = 0
	maximum = 0
Injected packet rate average = 0.349971
	minimum = 0.0161852 (at node 3)
	maximum = 0.601296 (at node 7)
Accepted packet rate average = 0.349379
	minimum = 0.0161481 (at node 5)
	maximum = 0.601333 (at node 8)
Injected flit rate average = 0.349971
	minimum = 0.0161852 (at node 3)
	maximum = 0.601296 (at node 7)
Accepted flit rate average= 0.349379
	minimum = 0.0161481 (at node 5)
	maximum = 0.601333 (at node 8)
Injected packet length average = 1
Accepted packet length average = 1
Total in-flight flits = 153 (153 measured)
====== Peak Queue Occupancy Statistics (Absolute Max) ======
  Overall Max VC Occupancy = 1
  Overall Max Buffer Occupancy = 48
latency change    = 0.25281
throughput change = 0.0711286
Class 0:
Packet latency average = 23.7568
	minimum = 8
	maximum = 649
	95th percentile = 83.5
	99th percentile = 213.5
Network latency average = 23.5989
	minimum = 8
	maximum = 649
	95th percentile = 82.5
	99th percentile = 212.5
Slowest packet = 100861
Flit latency average = 23.5975
	minimum = 8
	maximum = 649
	95th percentile = 82.5
	99th percentile = 212.5
Slowest flit = 100861
Fragmentation average = 0
	minimum = 0
	maximum = 0
Injected packet rate average = 0.37573
	minimum = 0.0751667 (at node 3)
	maximum = 0.601033 (at node 7)
Accepted packet rate average = 0.374904
	minimum = 0.0748667 (at node 5)
	maximum = 0.601033 (at node 8)
Injected flit rate average = 0.37573
	minimum = 0.0751667 (at node 3)
	maximum = 0.601033 (at node 7)
Accepted flit rate average= 0.374904
	minimum = 0.0748667 (at node 5)
	maximum = 0.601033 (at node 8)
Injected packet length average = 1
Accepted packet length average = 1
Total in-flight flits = 232 (232 measured)
====== Peak Queue Occupancy Statistics (Absolute Max) ======
  Overall Max VC Occupancy = 1
  Overall Max Buffer Occupancy = 48
latency change    = 0.151199
throughput change = 0.0680844
Class 0:
Packet latency average = 26.0599
	minimum = 8
	maximum = 670
	95th percentile = 93.5
	99th percentile = 217.5
Network latency average = 25.9214
	minimum = 8
	maximum = 670
	95th percentile = 92.5
	99th percentile = 216.5
Slowest packet = 114217
Flit latency average = 25.92
	minimum = 8
	maximum = 670
	95th percentile = 92.5
	99th percentile = 216.5
Slowest flit = 114217
Fragmentation average = 0
	minimum = 0
	maximum = 0
Injected packet rate average = 0.396266
	minimum = 0.122424 (at node 3)
	maximum = 0.600364 (at node 4)
Accepted packet rate average = 0.395495
	minimum = 0.122212 (at node 5)
	maximum = 0.600364 (at node 1)
Injected flit rate average = 0.396266
	minimum = 0.122424 (at node 3)
	maximum = 0.600364 (at node 4)
Accepted flit rate average= 0.395495
	minimum = 0.122212 (at node 5)
	maximum = 0.600364 (at node 1)
Injected packet length average = 1
Accepted packet length average = 1
Total in-flight flits = 238 (238 measured)
====== Peak Queue Occupancy Statistics (Absolute Max) ======
  Overall Max VC Occupancy = 1
  Overall Max Buffer Occupancy = 48
latency change    = 0.0883766
throughput change = 0.0520645
Class 0:
Packet latency average = 27.9243
	minimum = 8
	maximum = 670
	95th percentile = 101.5
	99th percentile = 226.5
Network latency average = 27.7759
	minimum = 8
	maximum = 670
	95th percentile = 100.5
	99th percentile = 225.5
Slowest packet = 114217
Flit latency average = 27.7746
	minimum = 8
	maximum = 670
	95th percentile = 100.5
	99th percentile = 224.5
Slowest flit = 114217
Fragmentation average = 0
	minimum = 0
	maximum = 0
Injected packet rate average = 0.413123
	minimum = 0.161611 (at node 3)
	maximum = 0.601278 (at node 4)
Accepted packet rate average = 0.412346
	minimum = 0.161417 (at node 5)
	maximum = 0.601222 (at node 1)
Injected flit rate average = 0.413123
	minimum = 0.161611 (at node 3)
	maximum = 0.601278 (at node 4)
Accepted flit rate average= 0.412346
	minimum = 0.161417 (at node 5)
	maximum = 0.601222 (at node 1)
Injected packet length average = 1
Accepted packet length average = 1
Total in-flight flits = 262 (262 measured)
====== Peak Queue Occupancy Statistics (Absolute Max) ======
  Overall Max VC Occupancy = 1
  Overall Max Buffer Occupancy = 48
latency change    = 0.0667639
throughput change = 0.0408655
Class 0:
Packet latency average = 29.4088
	minimum = 8
	maximum = 670
	95th percentile = 107.5
	99th percentile = 231.5
Network latency average = 29.2672
	minimum = 8
	maximum = 670
	95th percentile = 106.5
	99th percentile = 230.5
Slowest packet = 114217
Flit latency average = 29.2659
	minimum = 8
	maximum = 670
	95th percentile = 106.5
	99th percentile = 230.5
Slowest flit = 114217
Fragmentation average = 0
	minimum = 0
	maximum = 0
Injected packet rate average = 0.42757
	minimum = 0.194872 (at node 3)
	maximum = 0.60159 (at node 4)
Accepted packet rate average = 0.426934
	minimum = 0.194692 (at node 5)
	maximum = 0.601538 (at node 1)
Injected flit rate average = 0.42757
	minimum = 0.194872 (at node 3)
	maximum = 0.60159 (at node 4)
Accepted flit rate average= 0.426934
	minimum = 0.194692 (at node 5)
	maximum = 0.601538 (at node 1)
Injected packet length average = 1
Accepted packet length average = 1
Total in-flight flits = 232 (232 measured)
====== Peak Queue Occupancy Statistics (Absolute Max) ======
  Overall Max VC Occupancy = 1
  Overall Max Buffer Occupancy = 48
latency change    = 0.05048
throughput change = 0.034171
Class 0:
Packet latency average = 30.6286
	minimum = 8
	maximum = 670
	95th percentile = 113.5
	99th percentile = 234.5
Network latency average = 30.4953
	minimum = 8
	maximum = 670
	95th percentile = 113.5
	99th percentile = 234.5
Slowest packet = 114217
Flit latency average = 30.4941
	minimum = 8
	maximum = 670
	95th percentile = 113.5
	99th percentile = 234.5
Slowest flit = 114217
Fragmentation average = 0
	minimum = 0
	maximum = 0
Injected packet rate average = 0.439878
	minimum = 0.222857 (at node 3)
	maximum = 0.601786 (at node 4)
Accepted packet rate average = 0.439222
	minimum = 0.222738 (at node 5)
	maximum = 0.601595 (at node 1)
Injected flit rate average = 0.439878
	minimum = 0.222857 (at node 3)
	maximum = 0.601786 (at node 4)
Accepted flit rate average= 0.439222
	minimum = 0.222738 (at node 5)
	maximum = 0.601595 (at node 1)
Injected packet length average = 1
Accepted packet length average = 1
Total in-flight flits = 257 (257 measured)
====== Peak Queue Occupancy Statistics (Absolute Max) ======
  Overall Max VC Occupancy = 1
  Overall Max Buffer Occupancy = 48
latency change    = 0.0398257
throughput change = 0.0279762
Class 0:
Packet latency average = 31.5094
	minimum = 8
	maximum = 670
	95th percentile = 116.5
	99th percentile = 235.5
Network latency average = 31.3851
	minimum = 8
	maximum = 670
	95th percentile = 116.5
	99th percentile = 235.5
Slowest packet = 114217
Flit latency average = 31.384
	minimum = 8
	maximum = 670
	95th percentile = 116.5
	99th percentile = 235.5
Slowest flit = 114217
Fragmentation average = 0
	minimum = 0
	maximum = 0
Injected packet rate average = 0.450516
	minimum = 0.248533 (at node 3)
	maximum = 0.601644 (at node 4)
Accepted packet rate average = 0.450005
	minimum = 0.248333 (at node 5)
	maximum = 0.601667 (at node 1)
Injected flit rate average = 0.450516
	minimum = 0.248533 (at node 3)
	maximum = 0.601644 (at node 4)
Accepted flit rate average= 0.450005
	minimum = 0.248333 (at node 5)
	maximum = 0.601667 (at node 1)
Injected packet length average = 1
Accepted packet length average = 1
Total in-flight flits = 216 (216 measured)
====== Peak Queue Occupancy Statistics (Absolute Max) ======
  Overall Max VC Occupancy = 1
  Overall Max Buffer Occupancy = 48
latency change    = 0.0279543
throughput change = 0.0239613
Class 0:
Packet latency average = 32.2784
	minimum = 8
	maximum = 670
	95th percentile = 119.5
	99th percentile = 239.5
Network latency average = 32.1638
	minimum = 8
	maximum = 670
	95th percentile = 119.5
	99th percentile = 238.5
Slowest packet = 114217
Flit latency average = 32.1628
	minimum = 8
	maximum = 670
	95th percentile = 119.5
	99th percentile = 238.5
Slowest flit = 114217
Fragmentation average = 0
	minimum = 0
	maximum = 0
Injected packet rate average = 0.46012
	minimum = 0.270521 (at node 3)
	maximum = 0.602125 (at node 4)
Accepted packet rate average = 0.459669
	minimum = 0.270417 (at node 5)
	maximum = 0.602083 (at node 1)
Injected flit rate average = 0.46012
	minimum = 0.270521 (at node 3)
	maximum = 0.602125 (at node 4)
Accepted flit rate average= 0.459669
	minimum = 0.270417 (at node 5)
	maximum = 0.602083 (at node 1)
Injected packet length average = 1
Accepted packet length average = 1
Total in-flight flits = 204 (204 measured)
====== Peak Queue Occupancy Statistics (Absolute Max) ======
  Overall Max VC Occupancy = 1
  Overall Max Buffer Occupancy = 48
latency change    = 0.023824
throughput change = 0.0210239
Draining all recorded packets ...
Draining remaining packets ...
Time taken is 54243 cycles
====== Overall Traffic Statistics ======
====== Traffic class 0 ======
Packet latency average = 32.3317 (1 samples)
	minimum = 8 (1 samples)
	maximum = 670 (1 samples)
Network latency average = 32.2172 (1 samples)
	minimum = 8 (1 samples)
	maximum = 670 (1 samples)
Flit latency average = 32.2288 (1 samples)
	minimum = 8 (1 samples)
	maximum = 670 (1 samples)
Fragmentation average = 0 (1 samples)
	minimum = 0 (1 samples)
	maximum = 0 (1 samples)
Injected packet rate average = 0.46012 (1 samples)
	minimum = 0.270521 (1 samples)
	maximum = 0.602125 (1 samples)
Accepted packet rate average = 0.459669 (1 samples)
	minimum = 0.270417 (1 samples)
	maximum = 0.602083 (1 samples)
Injected flit rate average = 0.46012 (1 samples)
	minimum = 0.270521 (1 samples)
	maximum = 0.602125 (1 samples)
Accepted flit rate average = 0.459669 (1 samples)
	minimum = 0.270417 (1 samples)
	maximum = 0.602083 (1 samples)
Injected packet size average = 1 (1 samples)
Accepted packet size average = 1 (1 samples)
Hops average = 2.96454 (1 samples)
Total run time 9.58918
====== Hybrid Routing Split Statistics ======
XY packets = 166380
Racke packets = 37170
XY fraction = 0.817391
Racke fraction = 0.182609
Flow (0 -> 4) alpha=0.436926 xy_packets=10919 racke_packets=6678 racke_fraction=0.379497
Flow (1 -> 7) alpha=0.437688 xy_packets=15866 racke_packets=6711 racke_fraction=0.297249
Flow (2 -> 6) alpha=0.436926 xy_packets=13034 racke_packets=7291 racke_fraction=0.358721
Flow (3 -> 5) alpha=0 xy_packets=13073 racke_packets=0 racke_fraction=0
Flow (4 -> 1) alpha=0.438313 xy_packets=25441 racke_packets=6625 racke_fraction=0.206605
Flow (5 -> 2) alpha=0 xy_packets=25007 racke_packets=0 racke_fraction=0
Flow (6 -> 0) alpha=0.232981 xy_packets=22764 racke_packets=5006 racke_fraction=0.180266
Flow (7 -> 8) alpha=0 xy_packets=29805 racke_packets=0 racke_fraction=0
Flow (8 -> 3) alpha=0.232984 xy_packets=10471 racke_packets=4859 racke_fraction=0.31696
====== Hybrid Routing Window Statistics ======
Window [0,3000) xy_packets=1291 racke_packets=0 xy_fraction=1
Window [3000,6000) xy_packets=2703 racke_packets=0 xy_fraction=1
Window [6000,9000) xy_packets=4022 racke_packets=0 xy_fraction=1
Window [9000,12000) xy_packets=5462 racke_packets=0 xy_fraction=1
Window [12000,15000) xy_packets=6730 racke_packets=0 xy_fraction=1
Window [15000,18000) xy_packets=8126 racke_packets=0 xy_fraction=1
Window [18000,21000) xy_packets=9491 racke_packets=0 xy_fraction=1
Window [21000,24000) xy_packets=10773 racke_packets=0 xy_fraction=1
Window [24000,27000) xy_packets=11709 racke_packets=440 xy_fraction=0.963783
Window [27000,30000) xy_packets=10555 racke_packets=2905 xy_fraction=0.784175
Window [30000,33000) xy_packets=10678 racke_packets=4152 xy_fraction=0.720027
Window [33000,36000) xy_packets=11970 racke_packets=4434 xy_fraction=0.7297
Window [36000,39000) xy_packets=11960 racke_packets=4284 xy_fraction=0.736272
Window [39000,42000) xy_packets=12037 racke_packets=4125 xy_fraction=0.744772
Window [42000,45000) xy_packets=12125 racke_packets=4099 xy_fraction=0.74735
Window [45000,48000) xy_packets=11875 racke_packets=4322 xy_fraction=0.73316
Window [48000,51000) xy_packets=12201 racke_packets=3984 xy_fraction=0.753846
Window [51000,54000) xy_packets=12105 racke_packets=4208 xy_fraction=0.742046
Window [54000,57000) xy_packets=567 racke_packets=217 xy_fraction=0.723214

