BEGIN Configuration File: D:\noc_huawei\noc\booksim2-noc_speedup_study\booksim2-noc_speedup_study\tests\data\results\p3_ramp_to_0p6_hold_current_scheme\tmp_configs\ordered_fill_dim_order_s2201.config
num_vcs     = 48;
vc_buf_size = 16;
wait_for_tail_credit = 1;

vc_allocator = islip;
sw_allocator = islip;
alloc_iters  = 16;

credit_delay   = 2;
routing_delay  = 0;
vc_alloc_delay = 1;
sw_alloc_delay = 1;
st_final_delay = 1;

input_speedup     = 1;
output_speedup    = 1;
internal_speedup  = 2.0;

sim_type = latency;
latency_thres  = 100000.0;
sim_count      = 1;
queue_sample_period_cycles = 0;

topology = mesh;
k  = 3;
n  = 2;

hybrid_transition_mode = linear_prob;
hybrid_xy_low_threshold = 0.35;
hybrid_racke_high_threshold = 0.65;
hybrid_buffer_soft_threshold = 0.50;
hybrid_buffer_hard_threshold = 0.85;
hybrid_buffer_release_threshold = 0.35;
hybrid_rate_soft_threshold = 0.55;
hybrid_rate_hard_threshold = 0.90;
hybrid_rate_weight = 0.25;
hybrid_congestion_alpha = 0.25;
hybrid_racke_increase_step = 0.25;
hybrid_racke_decrease_step = 0.10;
hybrid_epoch_cycles = 200;
hybrid_hold_cycles = 600;
hybrid_enable_midflight_override = 1;
hybrid_feedback_delay_per_hop = 1;
hybrid_flow_increase_step = 0.20;
hybrid_flow_decrease_step = 0.08;
hybrid_flow_hard_threshold = 0.95;

packet_size = 1;

scheduled_injection_rates = {0.10,0.20,0.30};
scheduled_phase_cycles = {1000,1000,1000};
scheduled_default_phase_cycles = 1000;

custom_perm_array = {4,7,6,5,1,2,0,8,3};
warmup_periods = 2;
seed = 2201;
hybrid_flow_hotspot_alpha = 0.85;
injection_process = ordered_fill;
perm_seed = 2201;
ordered_injection_phase_cycles = {3000,3000,3000,3000,3000,3000,3000,3000,3000,3000,3000,3000,3000,3000,3000,3000};
routing_function = dim_order;
injection_rate = 0.6;
max_samples = 24;
ordered_injection_source_order = {4,7,6,5,1,2,0,8,3};
hybrid_flow_hotspot_threshold = 0.8;
ordered_injection_flow_peak_rate = 0.6;
ordered_injection_coefficients = {0.0833333333333333,0.166666666666667,0.25,0.333333333333333,0.416666666666667,0.5,0.583333333333333,0.666666666666667,0.75,0.833333333333333,0.916666666666667,1.0,1.0,1.0,1.0,1.0};
hybrid_stats_window_cycles = 3000;
traffic = custom_perm;
sample_period = 3000;

END Configuration File: D:\noc_huawei\noc\booksim2-noc_speedup_study\booksim2-noc_speedup_study\tests\data\results\p3_ramp_to_0p6_hold_current_scheme\tmp_configs\ordered_fill_dim_order_s2201.config
Class 0:
Packet latency average = 8
	minimum = 8
	maximum = 8
	95th percentile = 8.5
	99th percentile = 8.5
Network latency average = 8
	minimum = 8
	maximum = 8
	95th percentile = 8.5
	99th percentile = 8.5
Slowest packet = 0
Flit latency average = 8
	minimum = 8
	maximum = 8
	95th percentile = 8.5
	99th percentile = 8.5
Slowest flit = 0
Fragmentation average = 0
	minimum = 0
	maximum = 0
Injected packet rate average = 0.0502222
	minimum = 0 (at node 0)
	maximum = 0.452 (at node 4)
Accepted packet rate average = 0.050037
	minimum = 0 (at node 0)
	maximum = 0.450333 (at node 1)
Injected flit rate average = 0.0502222
	minimum = 0 (at node 0)
	maximum = 0.452 (at node 4)
Accepted flit rate average= 0.050037
	minimum = 0 (at node 0)
	maximum = 0.450333 (at node 1)
Injected packet length average = 1
Accepted packet length average = 1
Total in-flight flits = 5 (0 measured)
====== Peak Queue Occupancy Statistics (Absolute Max) ======
  Overall Max VC Occupancy = 1
  Overall Max Buffer Occupancy = 1
latency change    = 1
throughput change = 1
Class 0:
Packet latency average = 8
	minimum = 8
	maximum = 8
	95th percentile = 8.5
	99th percentile = 8.5
Network latency average = 8
	minimum = 8
	maximum = 8
	95th percentile = 8.5
	99th percentile = 8.5
Slowest packet = 0
Flit latency average = 8
	minimum = 8
	maximum = 8
	95th percentile = 8.5
	99th percentile = 8.5
Slowest flit = 0
Fragmentation average = 0
	minimum = 0
	maximum = 0
Injected packet rate average = 0.0735926
	minimum = 0 (at node 0)
	maximum = 0.516333 (at node 4)
Accepted packet rate average = 0.0735185
	minimum = 0 (at node 0)
	maximum = 0.516 (at node 1)
Injected flit rate average = 0.0735926
	minimum = 0 (at node 0)
	maximum = 0.516333 (at node 4)
Accepted flit rate average= 0.0735185
	minimum = 0 (at node 0)
	maximum = 0.516 (at node 1)
Injected packet length average = 1
Accepted packet length average = 1
Total in-flight flits = 4 (0 measured)
====== Peak Queue Occupancy Statistics (Absolute Max) ======
  Overall Max VC Occupancy = 1
  Overall Max Buffer Occupancy = 1
latency change    = 0
throughput change = 0.319395
Warmed up ...Time used is 6000 cycles
Class 0:
Packet latency average = 8.32649
	minimum = 8
	maximum = 11
	95th percentile = 11.5
	99th percentile = 11.5
Network latency average = 8.32649
	minimum = 8
	maximum = 11
	95th percentile = 11.5
	99th percentile = 11.5
Slowest packet = 4004
Flit latency average = 8.32617
	minimum = 8
	maximum = 11
	95th percentile = 11.5
	99th percentile = 11.5
Slowest flit = 4004
Fragmentation average = 0
	minimum = 0
	maximum = 0
Injected packet rate average = 0.150333
	minimum = 0 (at node 0)
	maximum = 0.608333 (at node 7)
Accepted packet rate average = 0.149889
	minimum = 0 (at node 2)
	maximum = 0.606667 (at node 8)
Injected flit rate average = 0.150333
	minimum = 0 (at node 0)
	maximum = 0.608333 (at node 7)
Accepted flit rate average= 0.149889
	minimum = 0 (at node 2)
	maximum = 0.606667 (at node 8)
Injected packet length average = 1
Accepted packet length average = 1
Total in-flight flits = 16 (16 measured)
====== Peak Queue Occupancy Statistics (Absolute Max) ======
  Overall Max VC Occupancy = 1
  Overall Max Buffer Occupancy = 1
latency change    = 0.039211
throughput change = 0.509513
Class 0:
Packet latency average = 8.70433
	minimum = 8
	maximum = 11
	95th percentile = 11.5
	99th percentile = 11.5
Network latency average = 8.70433
	minimum = 8
	maximum = 11
	95th percentile = 11.5
	99th percentile = 11.5
Slowest packet = 4004
Flit latency average = 8.70404
	minimum = 8
	maximum = 11
	95th percentile = 11.5
	99th percentile = 11.5
Slowest flit = 4004
Fragmentation average = 0
	minimum = 0
	maximum = 0
Injected packet rate average = 0.175574
	minimum = 0 (at node 0)
	maximum = 0.6055 (at node 4)
Accepted packet rate average = 0.175259
	minimum = 0 (at node 2)
	maximum = 0.604833 (at node 1)
Injected flit rate average = 0.175574
	minimum = 0 (at node 0)
	maximum = 0.6055 (at node 4)
Accepted flit rate average= 0.175259
	minimum = 0 (at node 2)
	maximum = 0.604833 (at node 1)
Injected packet length average = 1
Accepted packet length average = 1
Total in-flight flits = 21 (21 measured)
====== Peak Queue Occupancy Statistics (Absolute Max) ======
  Overall Max VC Occupancy = 1
  Overall Max Buffer Occupancy = 1
latency change    = 0.0434087
throughput change = 0.144759
Class 0:
Packet latency average = 8.74341
	minimum = 8
	maximum = 11
	95th percentile = 11.5
	99th percentile = 11.5
Network latency average = 8.74341
	minimum = 8
	maximum = 11
	95th percentile = 11.5
	99th percentile = 11.5
Slowest packet = 4004
Flit latency average = 8.74323
	minimum = 8
	maximum = 11
	95th percentile = 11.5
	99th percentile = 11.5
Slowest flit = 4004
Fragmentation average = 0
	minimum = 0
	maximum = 0
Injected packet rate average = 0.201284
	minimum = 0 (at node 0)
	maximum = 0.604778 (at node 4)
Accepted packet rate average = 0.201074
	minimum = 0 (at node 3)
	maximum = 0.604222 (at node 1)
Injected flit rate average = 0.201284
	minimum = 0 (at node 0)
	maximum = 0.604778 (at node 4)
Accepted flit rate average= 0.201074
	minimum = 0 (at node 3)
	maximum = 0.604222 (at node 1)
Injected packet length average = 1
Accepted packet length average = 1
Total in-flight flits = 21 (21 measured)
====== Peak Queue Occupancy Statistics (Absolute Max) ======
  Overall Max VC Occupancy = 1
  Overall Max Buffer Occupancy = 1
latency change    = 0.00446957
throughput change = 0.128385
Class 0:
Packet latency average = 8.82874
	minimum = 8
	maximum = 11
	95th percentile = 11.5
	99th percentile = 11.5
Network latency average = 8.82874
	minimum = 8
	maximum = 11
	95th percentile = 11.5
	99th percentile = 11.5
Slowest packet = 4004
Flit latency average = 8.82861
	minimum = 8
	maximum = 11
	95th percentile = 11.5
	99th percentile = 11.5
Slowest flit = 4004
Fragmentation average = 0
	minimum = 0
	maximum = 0
Injected packet rate average = 0.226694
	minimum = 0 (at node 0)
	maximum = 0.60675 (at node 4)
Accepted packet rate average = 0.226519
	minimum = 0 (at node 3)
	maximum = 0.606667 (at node 1)
Injected flit rate average = 0.226694
	minimum = 0 (at node 0)
	maximum = 0.60675 (at node 4)
Accepted flit rate average= 0.226519
	minimum = 0 (at node 3)
	maximum = 0.606667 (at node 1)
Injected packet length average = 1
Accepted packet length average = 1
Total in-flight flits = 23 (23 measured)
====== Peak Queue Occupancy Statistics (Absolute Max) ======
  Overall Max VC Occupancy = 1
  Overall Max Buffer Occupancy = 1
latency change    = 0.00966473
throughput change = 0.112328
Class 0:
Packet latency average = 9.03888
	minimum = 8
	maximum = 17
	95th percentile = 11.5
	99th percentile = 17.5
Network latency average = 9.03888
	minimum = 8
	maximum = 17
	95th percentile = 11.5
	99th percentile = 17.5
Slowest packet = 28526
Flit latency average = 9.03876
	minimum = 8
	maximum = 17
	95th percentile = 11.5
	99th percentile = 17.5
Slowest flit = 28526
Fragmentation average = 0
	minimum = 0
	maximum = 0
Injected packet rate average = 0.251348
	minimum = 0 (at node 0)
	maximum = 0.6056 (at node 4)
Accepted packet rate average = 0.251133
	minimum = 0 (at node 3)
	maximum = 0.6054 (at node 1)
Injected flit rate average = 0.251348
	minimum = 0 (at node 0)
	maximum = 0.6056 (at node 4)
Accepted flit rate average= 0.251133
	minimum = 0 (at node 3)
	maximum = 0.6054 (at node 1)
Injected packet length average = 1
Accepted packet length average = 1
Total in-flight flits = 33 (33 measured)
====== Peak Queue Occupancy Statistics (Absolute Max) ======
  Overall Max VC Occupancy = 1
  Overall Max Buffer Occupancy = 1
latency change    = 0.0232484
throughput change = 0.0980149
Class 0:
Packet latency average = 9.39707
	minimum = 8
	maximum = 17
	95th percentile = 17.5
	99th percentile = 17.5
Network latency average = 9.39707
	minimum = 8
	maximum = 17
	95th percentile = 17.5
	99th percentile = 17.5
Slowest packet = 28526
Flit latency average = 9.39695
	minimum = 8
	maximum = 17
	95th percentile = 17.5
	99th percentile = 17.5
Slowest flit = 28526
Fragmentation average = 0
	minimum = 0
	maximum = 0
Injected packet rate average = 0.27634
	minimum = 0 (at node 0)
	maximum = 0.605 (at node 4)
Accepted packet rate average = 0.276105
	minimum = 0 (at node 3)
	maximum = 0.604889 (at node 1)
Injected flit rate average = 0.27634
	minimum = 0 (at node 0)
	maximum = 0.605 (at node 4)
Accepted flit rate average= 0.276105
	minimum = 0 (at node 3)
	maximum = 0.604889 (at node 1)
Injected packet length average = 1
Accepted packet length average = 1
Total in-flight flits = 42 (42 measured)
====== Peak Queue Occupancy Statistics (Absolute Max) ======
  Overall Max VC Occupancy = 1
  Overall Max Buffer Occupancy = 1
latency change    = 0.0381173
throughput change = 0.0904424
Class 0:
Packet latency average = 13.141
	minimum = 8
	maximum = 763
	95th percentile = 30.5
	99th percentile = 84.5
Network latency average = 13.0984
	minimum = 8
	maximum = 763
	95th percentile = 30.5
	99th percentile = 83.5
Slowest packet = 57803
Flit latency average = 13.0981
	minimum = 8
	maximum = 763
	95th percentile = 30.5
	99th percentile = 83.5
Slowest flit = 57803
Fragmentation average = 0
	minimum = 0
	maximum = 0
Injected packet rate average = 0.301444
	minimum = 0 (at node 3)
	maximum = 0.603143 (at node 4)
Accepted packet rate average = 0.300561
	minimum = 0 (at node 3)
	maximum = 0.603 (at node 1)
Injected flit rate average = 0.301444
	minimum = 0 (at node 3)
	maximum = 0.603143 (at node 4)
Accepted flit rate average= 0.300561
	minimum = 0 (at node 3)
	maximum = 0.603 (at node 1)
Injected packet length average = 1
Accepted packet length average = 1
Total in-flight flits = 171 (171 measured)
====== Peak Queue Occupancy Statistics (Absolute Max) ======
  Overall Max VC Occupancy = 1
  Overall Max Buffer Occupancy = 48
latency change    = 0.284903
throughput change = 0.0813676
Class 0:
Packet latency average = 27.0776
	minimum = 8
	maximum = 1454
	95th percentile = 78.5
	99th percentile = 437.5
Network latency average = 19.0994
	minimum = 8
	maximum = 1285
	95th percentile = 62.5
	99th percentile = 197.5
Slowest packet = 61266
Flit latency average = 19.0988
	minimum = 8
	maximum = 1285
	95th percentile = 62.5
	99th percentile = 197.5
Slowest flit = 68220
Fragmentation average = 0
	minimum = 0
	maximum = 0
Injected packet rate average = 0.323949
	minimum = 0 (at node 3)
	maximum = 0.602625 (at node 4)
Accepted packet rate average = 0.322903
	minimum = 0 (at node 5)
	maximum = 0.6025 (at node 1)
Injected flit rate average = 0.323949
	minimum = 0 (at node 3)
	maximum = 0.602625 (at node 4)
Accepted flit rate average= 0.322903
	minimum = 0 (at node 5)
	maximum = 0.6025 (at node 1)
Injected packet length average = 1
Accepted packet length average = 1
Total in-flight flits = 231 (231 measured)
====== Peak Queue Occupancy Statistics (Absolute Max) ======
  Overall Max VC Occupancy = 1
  Overall Max Buffer Occupancy = 48
latency change    = 0.514692
throughput change = 0.0691909
Class 0:
Packet latency average = 63.7278
	minimum = 8
	maximum = 2261
	95th percentile = 401.5
	99th percentile = 999.5
Network latency average = 28.9854
	minimum = 8
	maximum = 1995
	95th percentile = 103.5
	99th percentile = 376.5
Slowest packet = 67392
Flit latency average = 28.9843
	minimum = 8
	maximum = 1995
	95th percentile = 103.5
	99th percentile = 376.5
Slowest flit = 77321
Fragmentation average = 0
	minimum = 0
	maximum = 0
Injected packet rate average = 0.345185
	minimum = 0.0168889 (at node 3)
	maximum = 0.603037 (at node 4)
Accepted packet rate average = 0.34335
	minimum = 0.0167778 (at node 5)
	maximum = 0.602926 (at node 1)
Injected flit rate average = 0.345185
	minimum = 0.0168889 (at node 3)
	maximum = 0.603037 (at node 4)
Accepted flit rate average= 0.34335
	minimum = 0.0167778 (at node 5)
	maximum = 0.602926 (at node 1)
Injected packet length average = 1
Accepted packet length average = 1
Total in-flight flits = 452 (452 measured)
====== Peak Queue Occupancy Statistics (Absolute Max) ======
  Overall Max VC Occupancy = 1
  Overall Max Buffer Occupancy = 48
latency change    = 0.575106
throughput change = 0.0595516
Class 0:
Packet latency average = 118.885
	minimum = 8
	maximum = 3023
	95th percentile = 964.5
	99th percentile = 999.5
Network latency average = 38.4722
	minimum = 8
	maximum = 3023
	95th percentile = 173.5
	99th percentile = 480.5
Slowest packet = 80545
Flit latency average = 38.4709
	minimum = 8
	maximum = 3023
	95th percentile = 173.5
	99th percentile = 480.5
Slowest flit = 80545
Fragmentation average = 0
	minimum = 0
	maximum = 0
Injected packet rate average = 0.366189
	minimum = 0.0739333 (at node 3)
	maximum = 0.6015 (at node 4)
Accepted packet rate average = 0.364526
	minimum = 0.0736667 (at node 5)
	maximum = 0.6014 (at node 1)
Injected flit rate average = 0.366189
	minimum = 0.0739333 (at node 3)
	maximum = 0.6015 (at node 4)
Accepted flit rate average= 0.364526
	minimum = 0.0736667 (at node 5)
	maximum = 0.6014 (at node 1)
Injected packet length average = 1
Accepted packet length average = 1
Total in-flight flits = 456 (456 measured)
====== Peak Queue Occupancy Statistics (Absolute Max) ======
  Overall Max VC Occupancy = 1
  Overall Max Buffer Occupancy = 48
latency change    = 0.463954
throughput change = 0.0580923
Class 0:
Packet latency average = 185.134
	minimum = 8
	maximum = 3648
	95th percentile = 999.5
	99th percentile = 999.5
Network latency average = 45.4754
	minimum = 8
	maximum = 3280
	95th percentile = 203.5
	99th percentile = 531.5
Slowest packet = 98429
Flit latency average = 45.4741
	minimum = 8
	maximum = 3280
	95th percentile = 203.5
	99th percentile = 531.5
Slowest flit = 98838
Fragmentation average = 0
	minimum = 0
	maximum = 0
Injected packet rate average = 0.383367
	minimum = 0.120091 (at node 3)
	maximum = 0.602818 (at node 4)
Accepted packet rate average = 0.381875
	minimum = 0.119939 (at node 5)
	maximum = 0.602667 (at node 1)
Injected flit rate average = 0.383367
	minimum = 0.120091 (at node 3)
	maximum = 0.602818 (at node 4)
Accepted flit rate average= 0.381875
	minimum = 0.119939 (at node 5)
	maximum = 0.602667 (at node 1)
Injected packet length average = 1
Accepted packet length average = 1
Total in-flight flits = 449 (449 measured)
====== Peak Queue Occupancy Statistics (Absolute Max) ======
  Overall Max VC Occupancy = 1
  Overall Max Buffer Occupancy = 48
latency change    = 0.357844
throughput change = 0.0454323
Class 0:
Packet latency average = 258.869
	minimum = 8
	maximum = 3648
	95th percentile = 999.5
	99th percentile = 999.5
Network latency average = 50.6517
	minimum = 8
	maximum = 3280
	95th percentile = 229.5
	99th percentile = 578.5
Slowest packet = 98429
Flit latency average = 50.6504
	minimum = 8
	maximum = 3280
	95th percentile = 229.5
	99th percentile = 578.5
Slowest flit = 98838
Fragmentation average = 0
	minimum = 0
	maximum = 0
Injected packet rate average = 0.397568
	minimum = 0.160528 (at node 3)
	maximum = 0.603333 (at node 4)
Accepted packet rate average = 0.396167
	minimum = 0.160361 (at node 5)
	maximum = 0.603222 (at node 1)
Injected flit rate average = 0.397568
	minimum = 0.160528 (at node 3)
	maximum = 0.603333 (at node 4)
Accepted flit rate average= 0.396167
	minimum = 0.160361 (at node 5)
	maximum = 0.603222 (at node 1)
Injected packet length average = 1
Accepted packet length average = 1
Total in-flight flits = 459 (459 measured)
====== Peak Queue Occupancy Statistics (Absolute Max) ======
  Overall Max VC Occupancy = 1
  Overall Max Buffer Occupancy = 48
latency change    = 0.284834
throughput change = 0.0360738
Class 0:
Packet latency average = 338.587
	minimum = 8
	maximum = 4341
	95th percentile = 999.5
	99th percentile = 999.5
Network latency average = 54.9244
	minimum = 8
	maximum = 3280
	95th percentile = 247.5
	99th percentile = 631.5
Slowest packet = 98429
Flit latency average = 54.923
	minimum = 8
	maximum = 3280
	95th percentile = 247.5
	99th percentile = 631.5
Slowest flit = 98838
Fragmentation average = 0
	minimum = 0
	maximum = 0
Injected packet rate average = 0.40998
	minimum = 0.195615 (at node 3)
	maximum = 0.603538 (at node 4)
Accepted packet rate average = 0.408701
	minimum = 0.195462 (at node 5)
	maximum = 0.603436 (at node 1)
Injected flit rate average = 0.40998
	minimum = 0.195615 (at node 3)
	maximum = 0.603538 (at node 4)
Accepted flit rate average= 0.408701
	minimum = 0.195462 (at node 5)
	maximum = 0.603436 (at node 1)
Injected packet length average = 1
Accepted packet length average = 1
Total in-flight flits = 455 (455 measured)
====== Peak Queue Occupancy Statistics (Absolute Max) ======
  Overall Max VC Occupancy = 1
  Overall Max Buffer Occupancy = 48
latency change    = 0.235444
throughput change = 0.0306684
Class 0:
Packet latency average = 422.104
	minimum = 8
	maximum = 4917
	95th percentile = 999.5
	99th percentile = 999.5
Network latency average = 58.3415
	minimum = 8
	maximum = 3280
	95th percentile = 265.5
	99th percentile = 648.5
Slowest packet = 98429
Flit latency average = 58.3402
	minimum = 8
	maximum = 3280
	95th percentile = 265.5
	99th percentile = 648.5
Slowest flit = 98838
Fragmentation average = 0
	minimum = 0
	maximum = 0
Injected packet rate average = 0.420349
	minimum = 0.224667 (at node 3)
	maximum = 0.602833 (at node 4)
Accepted packet rate average = 0.419151
	minimum = 0.224524 (at node 5)
	maximum = 0.602786 (at node 1)
Injected flit rate average = 0.420349
	minimum = 0.224667 (at node 3)
	maximum = 0.602833 (at node 4)
Accepted flit rate average= 0.419151
	minimum = 0.224524 (at node 5)
	maximum = 0.602786 (at node 1)
Injected packet length average = 1
Accepted packet length average = 1
Total in-flight flits = 458 (458 measured)
====== Peak Queue Occupancy Statistics (Absolute Max) ======
  Overall Max VC Occupancy = 1
  Overall Max Buffer Occupancy = 48
latency change    = 0.197859
throughput change = 0.0249312
Class 0:
Packet latency average = 507.97
	minimum = 8
	maximum = 5160
	95th percentile = 999.5
	99th percentile = 999.5
Network latency average = 61.0916
	minimum = 8
	maximum = 3280
	95th percentile = 276.5
	99th percentile = 654.5
Slowest packet = 98429
Flit latency average = 61.0904
	minimum = 8
	maximum = 3280
	95th percentile = 276.5
	99th percentile = 654.5
Slowest flit = 98838
Fragmentation average = 0
	minimum = 0
	maximum = 0
Injected packet rate average = 0.429072
	minimum = 0.249422 (at node 3)
	maximum = 0.601867 (at node 4)
Accepted packet rate average = 0.427973
	minimum = 0.248356 (at node 3)
	maximum = 0.601822 (at node 1)
Injected flit rate average = 0.429072
	minimum = 0.249422 (at node 3)
	maximum = 0.601867 (at node 4)
Accepted flit rate average= 0.427973
	minimum = 0.248356 (at node 3)
	maximum = 0.601822 (at node 1)
Injected packet length average = 1
Accepted packet length average = 1
Total in-flight flits = 451 (451 measured)
====== Peak Queue Occupancy Statistics (Absolute Max) ======
  Overall Max VC Occupancy = 1
  Overall Max Buffer Occupancy = 48
latency change    = 0.169038
throughput change = 0.0206136
Class 0:
Packet latency average = 595.668
	minimum = 8
	maximum = 5746
	95th percentile = 999.5
	99th percentile = 999.5
Network latency average = 63.5616
	minimum = 8
	maximum = 3280
	95th percentile = 281.5
	99th percentile = 668.5
Slowest packet = 98429
Flit latency average = 63.5605
	minimum = 8
	maximum = 3280
	95th percentile = 281.5
	99th percentile = 668.5
Slowest flit = 98838
Fragmentation average = 0
	minimum = 0
	maximum = 0
Injected packet rate average = 0.437106
	minimum = 0.271708 (at node 3)
	maximum = 0.601708 (at node 4)
Accepted packet rate average = 0.436079
	minimum = 0.269875 (at node 3)
	maximum = 0.601646 (at node 1)
Injected flit rate average = 0.437106
	minimum = 0.271708 (at node 3)
	maximum = 0.601708 (at node 4)
Accepted flit rate average= 0.436079
	minimum = 0.269875 (at node 3)
	maximum = 0.601646 (at node 1)
Injected packet length average = 1
Accepted packet length average = 1
Total in-flight flits = 451 (451 measured)
====== Peak Queue Occupancy Statistics (Absolute Max) ======
  Overall Max VC Occupancy = 1
  Overall Max Buffer Occupancy = 48
latency change    = 0.147226
throughput change = 0.0185881
Class 0:
Packet latency average = 684.972
	minimum = 8
	maximum = 6257
	95th percentile = 999.5
	99th percentile = 999.5
Network latency average = 65.5367
	minimum = 8
	maximum = 3280
	95th percentile = 287.5
	99th percentile = 687.5
Slowest packet = 98429
Flit latency average = 65.5356
	minimum = 8
	maximum = 3280
	95th percentile = 287.5
	99th percentile = 687.5
Slowest flit = 98838
Fragmentation average = 0
	minimum = 0
	maximum = 0
Injected packet rate average = 0.444083
	minimum = 0.282451 (at node 8)
	maximum = 0.601804 (at node 4)
Accepted packet rate average = 0.443122
	minimum = 0.279157 (at node 3)
	maximum = 0.601725 (at node 1)
Injected flit rate average = 0.444083
	minimum = 0.282451 (at node 8)
	maximum = 0.601804 (at node 4)
Accepted flit rate average= 0.443122
	minimum = 0.279157 (at node 3)
	maximum = 0.601725 (at node 1)
Injected packet length average = 1
Accepted packet length average = 1
Total in-flight flits = 447 (447 measured)
====== Peak Queue Occupancy Statistics (Absolute Max) ======
  Overall Max VC Occupancy = 1
  Overall Max Buffer Occupancy = 48
latency change    = 0.130376
throughput change = 0.0158947
Class 0:
Packet latency average = 775.566
	minimum = 8
	maximum = 6728
	95th percentile = 999.5
	99th percentile = 999.5
Network latency average = 67.2655
	minimum = 8
	maximum = 3280
	95th percentile = 290.5
	99th percentile = 702.5
Slowest packet = 98429
Flit latency average = 67.2644
	minimum = 8
	maximum = 3280
	95th percentile = 290.5
	99th percentile = 702.5
Slowest flit = 98838
Fragmentation average = 0
	minimum = 0
	maximum = 0
Injected packet rate average = 0.450233
	minimum = 0.294204 (at node 8)
	maximum = 0.601296 (at node 4)
Accepted packet rate average = 0.449309
	minimum = 0.291407 (at node 3)
	maximum = 0.601259 (at node 1)
Injected flit rate average = 0.450233
	minimum = 0.294204 (at node 8)
	maximum = 0.601296 (at node 4)
Accepted flit rate average= 0.449309
	minimum = 0.291407 (at node 3)
	maximum = 0.601259 (at node 1)
Injected packet length average = 1
Accepted packet length average = 1
Total in-flight flits = 457 (457 measured)
====== Peak Queue Occupancy Statistics (Absolute Max) ======
  Overall Max VC Occupancy = 1
  Overall Max Buffer Occupancy = 48
latency change    = 0.11681
throughput change = 0.0137692
Class 0:
Packet latency average = 867.077
	minimum = 8
	maximum = 7154
	95th percentile = 999.5
	99th percentile = 999.5
Network latency average = 68.8027
	minimum = 8
	maximum = 3280
	95th percentile = 296.5
	99th percentile = 710.5
Slowest packet = 98429
Flit latency average = 68.8016
	minimum = 8
	maximum = 3280
	95th percentile = 296.5
	99th percentile = 710.5
Slowest flit = 98838
Fragmentation average = 0
	minimum = 0
	maximum = 0
Injected packet rate average = 0.45594
	minimum = 0.309 (at node 8)
	maximum = 0.601053 (at node 4)
Accepted packet rate average = 0.455058
	minimum = 0.306123 (at node 3)
	maximum = 0.601018 (at node 1)
Injected flit rate average = 0.45594
	minimum = 0.309 (at node 8)
	maximum = 0.601053 (at node 4)
Accepted flit rate average= 0.455058
	minimum = 0.306123 (at node 3)
	maximum = 0.601018 (at node 1)
Injected packet length average = 1
Accepted packet length average = 1
Total in-flight flits = 458 (458 measured)
====== Peak Queue Occupancy Statistics (Absolute Max) ======
  Overall Max VC Occupancy = 1
  Overall Max Buffer Occupancy = 48
latency change    = 0.10554
throughput change = 0.0126354
Class 0:
Packet latency average = 960.531
	minimum = 8
	maximum = 7740
	95th percentile = 999.5
	99th percentile = 999.5
Network latency average = 70.0934
	minimum = 8
	maximum = 3280
	95th percentile = 304.5
	99th percentile = 716.5
Slowest packet = 98429
Flit latency average = 70.0924
	minimum = 8
	maximum = 3280
	95th percentile = 304.5
	99th percentile = 716.5
Slowest flit = 98838
Fragmentation average = 0
	minimum = 0
	maximum = 0
Injected packet rate average = 0.46102
	minimum = 0.31445 (at node 8)
	maximum = 0.600883 (at node 4)
Accepted packet rate average = 0.460196
	minimum = 0.311633 (at node 3)
	maximum = 0.600817 (at node 1)
Injected flit rate average = 0.46102
	minimum = 0.31445 (at node 8)
	maximum = 0.600883 (at node 4)
Accepted flit rate average= 0.460196
	minimum = 0.311633 (at node 3)
	maximum = 0.600817 (at node 1)
Injected packet length average = 1
Accepted packet length average = 1
Total in-flight flits = 450 (450 measured)
====== Peak Queue Occupancy Statistics (Absolute Max) ======
  Overall Max VC Occupancy = 1
  Overall Max Buffer Occupancy = 48
latency change    = 0.0972932
throughput change = 0.0111644
Class 0:
Packet latency average = 1054.99
	minimum = 8
	maximum = 8348
	95th percentile = 999.5
	99th percentile = 999.5
Network latency average = 71.2472
	minimum = 8
	maximum = 3280
	95th percentile = 308.5
	99th percentile = 723.5
Slowest packet = 98429
Flit latency average = 71.2463
	minimum = 8
	maximum = 3280
	95th percentile = 308.5
	99th percentile = 723.5
Slowest flit = 98838
Fragmentation average = 0
	minimum = 0
	maximum = 0
Injected packet rate average = 0.46564
	minimum = 0.324444 (at node 8)
	maximum = 0.601365 (at node 4)
Accepted packet rate average = 0.464838
	minimum = 0.321984 (at node 3)
	maximum = 0.601333 (at node 1)
Injected flit rate average = 0.46564
	minimum = 0.324444 (at node 8)
	maximum = 0.601365 (at node 4)
Accepted flit rate average= 0.464838
	minimum = 0.321984 (at node 3)
	maximum = 0.601333 (at node 1)
Injected packet length average = 1
Accepted packet length average = 1
Total in-flight flits = 462 (462 measured)
====== Peak Queue Occupancy Statistics (Absolute Max) ======
  Overall Max VC Occupancy = 1
  Overall Max Buffer Occupancy = 48
latency change    = 0.0895357
throughput change = 0.00998509
Class 0:
Packet latency average = 1149.52
	minimum = 8
	maximum = 8558
	95th percentile = 999.5
	99th percentile = 999.5
Network latency average = 72.3401
	minimum = 8
	maximum = 3280
	95th percentile = 314.5
	99th percentile = 728.5
Slowest packet = 98429
Flit latency average = 72.3392
	minimum = 8
	maximum = 3280
	95th percentile = 314.5
	99th percentile = 728.5
Slowest flit = 98838
Fragmentation average = 0
	minimum = 0
	maximum = 0
Injected packet rate average = 0.469751
	minimum = 0.33497 (at node 8)
	maximum = 0.600864 (at node 4)
Accepted packet rate average = 0.469007
	minimum = 0.332545 (at node 3)
	maximum = 0.600864 (at node 1)
Injected flit rate average = 0.469751
	minimum = 0.33497 (at node 8)
	maximum = 0.600864 (at node 4)
Accepted flit rate average= 0.469007
	minimum = 0.332545 (at node 3)
	maximum = 0.600864 (at node 1)
Injected packet length average = 1
Accepted packet length average = 1
Total in-flight flits = 449 (449 measured)
====== Peak Queue Occupancy Statistics (Absolute Max) ======
  Overall Max VC Occupancy = 1
  Overall Max Buffer Occupancy = 48
latency change    = 0.0822361
throughput change = 0.00888898
Draining all recorded packets ...
Class 0:
Remaining flits: 280069 280313 280556 280791 281011 281255 281494 281741 281783 281846 [...] (455 flits)
Measured flits: 280069 280313 280556 280791 281011 281255 281494 281741 281783 281846 [...] (422 flits)
Class 0:
Remaining flits: 282865 284266 284908 285129 285422 285519 285552 285848 286053 286292 [...] (459 flits)
Measured flits: 282865 284266 284908 285129 285422 285519 285552 285848 286053 286292 [...] (423 flits)
Class 0:
Remaining flits: 287729 288255 288867 289564 289695 289701 289958 290299 290326 290339 [...] (456 flits)
Measured flits: 287729 288255 288867 289564 289695 289701 289958 290299 290326 290339 [...] (422 flits)
Class 0:
Remaining flits: 294241 294498 294619 294742 294801 295841 296123 296367 296605 296846 [...] (448 flits)
Measured flits: 294241 294498 294619 294742 294801 295841 296123 296367 296605 296846 [...] (418 flits)
Class 0:
Remaining flits: 299974 300006 300206 300456 300689 300930 301170 301411 301659 301846 [...] (461 flits)
Measured flits: 299974 300006 300206 300456 300689 300930 301170 301411 301659 301846 [...] (424 flits)
Class 0:
Remaining flits: 305009 305246 305487 305725 305971 306215 306263 306438 306676 306909 [...] (455 flits)
Measured flits: 305009 305246 305487 305725 305971 306215 306263 306438 306676 306909 [...] (423 flits)
Class 0:
Remaining flits: 309355 309466 309542 309576 309780 309862 309927 310014 310058 310445 [...] (459 flits)
Measured flits: 309355 309466 309542 309576 309780 309862 309927 310014 310058 310445 [...] (429 flits)
Class 0:
Remaining flits: 313476 314015 314113 314319 314370 314519 316108 316134 316420 316429 [...] (455 flits)
Measured flits: 313476 314015 314113 314319 314370 314519 316108 316134 316420 316429 [...] (404 flits)
Class 0:
Remaining flits: 319853 320102 320334 320576 320827 321062 321299 321548 321779 321786 [...] (456 flits)
Measured flits: 319853 320102 320334 320576 320827 321062 321299 321548 321779 321786 [...] (137 flits)
Class 0:
Remaining flits: 324935 325177 325422 325671 325903 326146 326386 326613 326834 327045 [...] (461 flits)
Measured flits: 327045 327479 327617 327741 327871 328207 328632 328894 (8 flits)
Draining remaining packets ...
Time taken is 82624 cycles
====== Overall Traffic Statistics ======
====== Traffic class 0 ======
Packet latency average = 1549.51 (1 samples)
	minimum = 8 (1 samples)
	maximum = 10536 (1 samples)
Network latency average = 80.793 (1 samples)
	minimum = 8 (1 samples)
	maximum = 3280 (1 samples)
Flit latency average = 75.5673 (1 samples)
	minimum = 8 (1 samples)
	maximum = 3280 (1 samples)
Fragmentation average = 0 (1 samples)
	minimum = 0 (1 samples)
	maximum = 0 (1 samples)
Injected packet rate average = 0.469751 (1 samples)
	minimum = 0.33497 (1 samples)
	maximum = 0.600864 (1 samples)
Accepted packet rate average = 0.469007 (1 samples)
	minimum = 0.332545 (1 samples)
	maximum = 0.600864 (1 samples)
Injected flit rate average = 0.469751 (1 samples)
	minimum = 0.33497 (1 samples)
	maximum = 0.600864 (1 samples)
Accepted flit rate average = 0.469007 (1 samples)
	minimum = 0.332545 (1 samples)
	maximum = 0.600864 (1 samples)
Injected packet size average = 1 (1 samples)
Accepted packet size average = 1 (1 samples)
Hops average = 2.91063 (1 samples)
Total run time 27.88

