BEGIN Configuration File: D:\noc_huawei\noc\booksim2-noc_speedup_study\booksim2-noc_speedup_study\tests\data\results\p3_ramp_to_0p6_hold_current_scheme\tmp_configs\ordered_fill_racke_tree_s2203.config
num_vcs     = 48;
vc_buf_size = 16;
wait_for_tail_credit = 1;

vc_allocator = islip;
sw_allocator = islip;
alloc_iters  = 16;

credit_delay   = 2;
routing_delay  = 0;
vc_alloc_delay = 1;
sw_alloc_delay = 1;
st_final_delay = 1;

input_speedup     = 1;
output_speedup    = 1;
internal_speedup  = 2.0;

sim_type = latency;
latency_thres  = 100000.0;
sim_count      = 1;
queue_sample_period_cycles = 0;

topology = mesh;
k  = 3;
n  = 2;

hybrid_transition_mode = linear_prob;
hybrid_xy_low_threshold = 0.35;
hybrid_racke_high_threshold = 0.65;
hybrid_buffer_soft_threshold = 0.50;
hybrid_buffer_hard_threshold = 0.85;
hybrid_buffer_release_threshold = 0.35;
hybrid_rate_soft_threshold = 0.55;
hybrid_rate_hard_threshold = 0.90;
hybrid_rate_weight = 0.25;
hybrid_congestion_alpha = 0.25;
hybrid_racke_increase_step = 0.25;
hybrid_racke_decrease_step = 0.10;
hybrid_epoch_cycles = 200;
hybrid_hold_cycles = 600;
hybrid_enable_midflight_override = 1;
hybrid_feedback_delay_per_hop = 1;
hybrid_flow_increase_step = 0.20;
hybrid_flow_decrease_step = 0.08;
hybrid_flow_hard_threshold = 0.95;

packet_size = 1;

scheduled_injection_rates = {0.10,0.20,0.30};
scheduled_phase_cycles = {1000,1000,1000};
scheduled_default_phase_cycles = 1000;

custom_perm_array = {4,7,6,5,1,2,0,8,3};
warmup_periods = 2;
seed = 2203;
hybrid_flow_hotspot_alpha = 0.85;
injection_process = ordered_fill;
perm_seed = 2203;
ordered_injection_phase_cycles = {3000,3000,3000,3000,3000,3000,3000,3000,3000,3000,3000,3000,3000,3000,3000,3000};
routing_function = racke_tree;
injection_rate = 0.6;
max_samples = 24;
ordered_injection_source_order = {4,7,6,5,1,2,0,8,3};
hybrid_flow_hotspot_threshold = 0.8;
ordered_injection_flow_peak_rate = 0.6;
ordered_injection_coefficients = {0.0833333333333333,0.166666666666667,0.25,0.333333333333333,0.416666666666667,0.5,0.583333333333333,0.666666666666667,0.75,0.833333333333333,0.916666666666667,1.0,1.0,1.0,1.0,1.0};
hybrid_stats_window_cycles = 3000;
traffic = custom_perm;
sample_period = 3000;

END Configuration File: D:\noc_huawei\noc\booksim2-noc_speedup_study\booksim2-noc_speedup_study\tests\data\results\p3_ramp_to_0p6_hold_current_scheme\tmp_configs\ordered_fill_racke_tree_s2203.config
Class 0:
Packet latency average = 10.1343
	minimum = 8
	maximum = 15
	95th percentile = 14.5
	99th percentile = 14.5
Network latency average = 10.1343
	minimum = 8
	maximum = 15
	95th percentile = 14.5
	99th percentile = 14.5
Slowest packet = 199
Flit latency average = 10.1343
	minimum = 8
	maximum = 15
	95th percentile = 14.5
	99th percentile = 14.5
Slowest flit = 199
Fragmentation average = 0
	minimum = 0
	maximum = 0
Injected packet rate average = 0.0478148
	minimum = 0 (at node 0)
	maximum = 0.430333 (at node 4)
Accepted packet rate average = 0.0477037
	minimum = 0 (at node 0)
	maximum = 0.429333 (at node 1)
Injected flit rate average = 0.0478148
	minimum = 0 (at node 0)
	maximum = 0.430333 (at node 4)
Accepted flit rate average= 0.0477037
	minimum = 0 (at node 0)
	maximum = 0.429333 (at node 1)
Injected packet length average = 1
Accepted packet length average = 1
Total in-flight flits = 3 (0 measured)
====== Peak Queue Occupancy Statistics (Absolute Max) ======
  Overall Max VC Occupancy = 1
  Overall Max Buffer Occupancy = 2
latency change    = 1
throughput change = 1
Class 0:
Packet latency average = 10.4214
	minimum = 8
	maximum = 22
	95th percentile = 15.5
	99th percentile = 20.5
Network latency average = 10.4214
	minimum = 8
	maximum = 22
	95th percentile = 15.5
	99th percentile = 20.5
Slowest packet = 1757
Flit latency average = 10.4214
	minimum = 8
	maximum = 22
	95th percentile = 15.5
	99th percentile = 20.5
Slowest flit = 1757
Fragmentation average = 0
	minimum = 0
	maximum = 0
Injected packet rate average = 0.073963
	minimum = 0 (at node 0)
	maximum = 0.5135 (at node 4)
Accepted packet rate average = 0.0737407
	minimum = 0 (at node 0)
	maximum = 0.512333 (at node 1)
Injected flit rate average = 0.073963
	minimum = 0 (at node 0)
	maximum = 0.5135 (at node 4)
Accepted flit rate average= 0.0737407
	minimum = 0 (at node 0)
	maximum = 0.512333 (at node 1)
Injected packet length average = 1
Accepted packet length average = 1
Total in-flight flits = 12 (0 measured)
====== Peak Queue Occupancy Statistics (Absolute Max) ======
  Overall Max VC Occupancy = 1
  Overall Max Buffer Occupancy = 2
latency change    = 0.0275471
throughput change = 0.353089
Warmed up ...Time used is 6000 cycles
Class 0:
Packet latency average = 11.1508
	minimum = 8
	maximum = 24
	95th percentile = 20.5
	99th percentile = 23.5
Network latency average = 11.1508
	minimum = 8
	maximum = 24
	95th percentile = 20.5
	99th percentile = 23.5
Slowest packet = 5973
Flit latency average = 11.1553
	minimum = 8
	maximum = 24
	95th percentile = 20.5
	99th percentile = 23.5
Slowest flit = 5973
Fragmentation average = 0
	minimum = 0
	maximum = 0
Injected packet rate average = 0.148963
	minimum = 0 (at node 0)
	maximum = 0.6 (at node 4)
Accepted packet rate average = 0.148815
	minimum = 0 (at node 2)
	maximum = 0.599667 (at node 1)
Injected flit rate average = 0.148963
	minimum = 0 (at node 0)
	maximum = 0.6 (at node 4)
Accepted flit rate average= 0.148815
	minimum = 0 (at node 2)
	maximum = 0.599667 (at node 1)
Injected packet length average = 1
Accepted packet length average = 1
Total in-flight flits = 16 (16 measured)
====== Peak Queue Occupancy Statistics (Absolute Max) ======
  Overall Max VC Occupancy = 1
  Overall Max Buffer Occupancy = 2
latency change    = 0.0654105
throughput change = 0.50448
Class 0:
Packet latency average = 11.6963
	minimum = 8
	maximum = 26
	95th percentile = 21.5
	99th percentile = 24.5
Network latency average = 11.6963
	minimum = 8
	maximum = 26
	95th percentile = 21.5
	99th percentile = 24.5
Slowest packet = 12385
Flit latency average = 11.6975
	minimum = 8
	maximum = 26
	95th percentile = 21.5
	99th percentile = 24.5
Slowest flit = 12385
Fragmentation average = 0
	minimum = 0
	maximum = 0
Injected packet rate average = 0.17563
	minimum = 0 (at node 0)
	maximum = 0.604833 (at node 7)
Accepted packet rate average = 0.175537
	minimum = 0 (at node 2)
	maximum = 0.605167 (at node 8)
Injected flit rate average = 0.17563
	minimum = 0 (at node 0)
	maximum = 0.604833 (at node 7)
Accepted flit rate average= 0.175537
	minimum = 0 (at node 2)
	maximum = 0.605167 (at node 8)
Injected packet length average = 1
Accepted packet length average = 1
Total in-flight flits = 17 (17 measured)
====== Peak Queue Occupancy Statistics (Absolute Max) ======
  Overall Max VC Occupancy = 1
  Overall Max Buffer Occupancy = 2
latency change    = 0.046642
throughput change = 0.152231
Class 0:
Packet latency average = 11.8206
	minimum = 8
	maximum = 26
	95th percentile = 21.5
	99th percentile = 24.5
Network latency average = 11.8206
	minimum = 8
	maximum = 26
	95th percentile = 21.5
	99th percentile = 24.5
Slowest packet = 12385
Flit latency average = 11.8212
	minimum = 8
	maximum = 26
	95th percentile = 21.5
	99th percentile = 24.5
Slowest flit = 12385
Fragmentation average = 0
	minimum = 0
	maximum = 0
Injected packet rate average = 0.200173
	minimum = 0 (at node 0)
	maximum = 0.600444 (at node 7)
Accepted packet rate average = 0.199951
	minimum = 0 (at node 3)
	maximum = 0.600444 (at node 8)
Injected flit rate average = 0.200173
	minimum = 0 (at node 0)
	maximum = 0.600444 (at node 7)
Accepted flit rate average= 0.199951
	minimum = 0 (at node 3)
	maximum = 0.600444 (at node 8)
Injected packet length average = 1
Accepted packet length average = 1
Total in-flight flits = 30 (30 measured)
====== Peak Queue Occupancy Statistics (Absolute Max) ======
  Overall Max VC Occupancy = 1
  Overall Max Buffer Occupancy = 2
latency change    = 0.0105113
throughput change = 0.122098
Class 0:
Packet latency average = 11.9298
	minimum = 8
	maximum = 26
	95th percentile = 21.5
	99th percentile = 24.5
Network latency average = 11.9298
	minimum = 8
	maximum = 26
	95th percentile = 21.5
	99th percentile = 24.5
Slowest packet = 12385
Flit latency average = 11.9302
	minimum = 8
	maximum = 26
	95th percentile = 21.5
	99th percentile = 24.5
Slowest flit = 12385
Fragmentation average = 0
	minimum = 0
	maximum = 0
Injected packet rate average = 0.22537
	minimum = 0 (at node 0)
	maximum = 0.602083 (at node 7)
Accepted packet rate average = 0.225231
	minimum = 0 (at node 3)
	maximum = 0.602083 (at node 8)
Injected flit rate average = 0.22537
	minimum = 0 (at node 0)
	maximum = 0.602083 (at node 7)
Accepted flit rate average= 0.225231
	minimum = 0 (at node 3)
	maximum = 0.602083 (at node 8)
Injected packet length average = 1
Accepted packet length average = 1
Total in-flight flits = 27 (27 measured)
====== Peak Queue Occupancy Statistics (Absolute Max) ======
  Overall Max VC Occupancy = 1
  Overall Max Buffer Occupancy = 2
latency change    = 0.00915925
throughput change = 0.112244
Class 0:
Packet latency average = 12.095
	minimum = 8
	maximum = 26
	95th percentile = 21.5
	99th percentile = 24.5
Network latency average = 12.095
	minimum = 8
	maximum = 26
	95th percentile = 21.5
	99th percentile = 24.5
Slowest packet = 12385
Flit latency average = 12.0952
	minimum = 8
	maximum = 26
	95th percentile = 21.5
	99th percentile = 24.5
Slowest flit = 12385
Fragmentation average = 0
	minimum = 0
	maximum = 0
Injected packet rate average = 0.2506
	minimum = 0 (at node 0)
	maximum = 0.6016 (at node 7)
Accepted packet rate average = 0.250422
	minimum = 0 (at node 3)
	maximum = 0.6016 (at node 8)
Injected flit rate average = 0.2506
	minimum = 0 (at node 0)
	maximum = 0.6016 (at node 7)
Accepted flit rate average= 0.250422
	minimum = 0 (at node 3)
	maximum = 0.6016 (at node 8)
Injected packet length average = 1
Accepted packet length average = 1
Total in-flight flits = 36 (36 measured)
====== Peak Queue Occupancy Statistics (Absolute Max) ======
  Overall Max VC Occupancy = 1
  Overall Max Buffer Occupancy = 2
latency change    = 0.0136595
throughput change = 0.100593
Class 0:
Packet latency average = 12.3635
	minimum = 8
	maximum = 27
	95th percentile = 21.5
	99th percentile = 24.5
Network latency average = 12.3635
	minimum = 8
	maximum = 27
	95th percentile = 21.5
	99th percentile = 24.5
Slowest packet = 38322
Flit latency average = 12.3636
	minimum = 8
	maximum = 27
	95th percentile = 21.5
	99th percentile = 24.5
Slowest flit = 38322
Fragmentation average = 0
	minimum = 0
	maximum = 0
Injected packet rate average = 0.275333
	minimum = 0 (at node 0)
	maximum = 0.600111 (at node 7)
Accepted packet rate average = 0.275117
	minimum = 0 (at node 3)
	maximum = 0.600167 (at node 8)
Injected flit rate average = 0.275333
	minimum = 0 (at node 0)
	maximum = 0.600111 (at node 7)
Accepted flit rate average= 0.275117
	minimum = 0 (at node 3)
	maximum = 0.600167 (at node 8)
Injected packet length average = 1
Accepted packet length average = 1
Total in-flight flits = 47 (47 measured)
====== Peak Queue Occupancy Statistics (Absolute Max) ======
  Overall Max VC Occupancy = 1
  Overall Max Buffer Occupancy = 2
latency change    = 0.0217128
throughput change = 0.0897619
Class 0:
Packet latency average = 12.58
	minimum = 8
	maximum = 27
	95th percentile = 21.5
	99th percentile = 24.5
Network latency average = 12.58
	minimum = 8
	maximum = 27
	95th percentile = 21.5
	99th percentile = 24.5
Slowest packet = 38322
Flit latency average = 12.5801
	minimum = 8
	maximum = 27
	95th percentile = 21.5
	99th percentile = 24.5
Slowest flit = 38322
Fragmentation average = 0
	minimum = 0
	maximum = 0
Injected packet rate average = 0.300614
	minimum = 0 (at node 3)
	maximum = 0.600095 (at node 7)
Accepted packet rate average = 0.30036
	minimum = 0 (at node 3)
	maximum = 0.600143 (at node 8)
Injected flit rate average = 0.300614
	minimum = 0 (at node 3)
	maximum = 0.600095 (at node 7)
Accepted flit rate average= 0.30036
	minimum = 0 (at node 3)
	maximum = 0.600143 (at node 8)
Injected packet length average = 1
Accepted packet length average = 1
Total in-flight flits = 60 (60 measured)
====== Peak Queue Occupancy Statistics (Absolute Max) ======
  Overall Max VC Occupancy = 1
  Overall Max Buffer Occupancy = 2
latency change    = 0.0172142
throughput change = 0.0840409
Class 0:
Packet latency average = 12.7814
	minimum = 8
	maximum = 27
	95th percentile = 21.5
	99th percentile = 24.5
Network latency average = 12.7814
	minimum = 8
	maximum = 27
	95th percentile = 21.5
	99th percentile = 24.5
Slowest packet = 38322
Flit latency average = 12.7813
	minimum = 8
	maximum = 27
	95th percentile = 21.5
	99th percentile = 24.5
Slowest flit = 38322
Fragmentation average = 0
	minimum = 0
	maximum = 0
Injected packet rate average = 0.325616
	minimum = 0 (at node 3)
	maximum = 0.601875 (at node 7)
Accepted packet rate average = 0.325394
	minimum = 0 (at node 5)
	maximum = 0.601833 (at node 8)
Injected flit rate average = 0.325616
	minimum = 0 (at node 3)
	maximum = 0.601875 (at node 7)
Accepted flit rate average= 0.325394
	minimum = 0 (at node 5)
	maximum = 0.601833 (at node 8)
Injected packet length average = 1
Accepted packet length average = 1
Total in-flight flits = 60 (60 measured)
====== Peak Queue Occupancy Statistics (Absolute Max) ======
  Overall Max VC Occupancy = 1
  Overall Max Buffer Occupancy = 2
latency change    = 0.0157502
throughput change = 0.0769337
Class 0:
Packet latency average = 12.9767
	minimum = 8
	maximum = 29
	95th percentile = 21.5
	99th percentile = 24.5
Network latency average = 12.9767
	minimum = 8
	maximum = 29
	95th percentile = 21.5
	99th percentile = 24.5
Slowest packet = 84285
Flit latency average = 12.9767
	minimum = 8
	maximum = 29
	95th percentile = 21.5
	99th percentile = 24.5
Slowest flit = 84285
Fragmentation average = 0
	minimum = 0
	maximum = 0
Injected packet rate average = 0.350374
	minimum = 0.0150741 (at node 3)
	maximum = 0.600704 (at node 7)
Accepted packet rate average = 0.350128
	minimum = 0.014963 (at node 5)
	maximum = 0.60063 (at node 8)
Injected flit rate average = 0.350374
	minimum = 0.0150741 (at node 3)
	maximum = 0.600704 (at node 7)
Accepted flit rate average= 0.350128
	minimum = 0.014963 (at node 5)
	maximum = 0.60063 (at node 8)
Injected packet length average = 1
Accepted packet length average = 1
Total in-flight flits = 72 (72 measured)
====== Peak Queue Occupancy Statistics (Absolute Max) ======
  Overall Max VC Occupancy = 1
  Overall Max Buffer Occupancy = 2
latency change    = 0.0150574
throughput change = 0.070643
Class 0:
Packet latency average = 13.1339
	minimum = 8
	maximum = 29
	95th percentile = 21.5
	99th percentile = 24.5
Network latency average = 13.1339
	minimum = 8
	maximum = 29
	95th percentile = 21.5
	99th percentile = 24.5
Slowest packet = 84285
Flit latency average = 13.1338
	minimum = 8
	maximum = 29
	95th percentile = 21.5
	99th percentile = 24.5
Slowest flit = 84285
Fragmentation average = 0
	minimum = 0
	maximum = 0
Injected packet rate average = 0.375593
	minimum = 0.0741333 (at node 3)
	maximum = 0.602467 (at node 7)
Accepted packet rate average = 0.375356
	minimum = 0.0737333 (at node 5)
	maximum = 0.6024 (at node 8)
Injected flit rate average = 0.375593
	minimum = 0.0741333 (at node 3)
	maximum = 0.602467 (at node 7)
Accepted flit rate average= 0.375356
	minimum = 0.0737333 (at node 5)
	maximum = 0.6024 (at node 8)
Injected packet length average = 1
Accepted packet length average = 1
Total in-flight flits = 76 (76 measured)
====== Peak Queue Occupancy Statistics (Absolute Max) ======
  Overall Max VC Occupancy = 1
  Overall Max Buffer Occupancy = 2
latency change    = 0.0119641
throughput change = 0.0672109
Class 0:
Packet latency average = 13.2511
	minimum = 8
	maximum = 30
	95th percentile = 21.5
	99th percentile = 24.5
Network latency average = 13.2511
	minimum = 8
	maximum = 30
	95th percentile = 21.5
	99th percentile = 24.5
Slowest packet = 108242
Flit latency average = 13.251
	minimum = 8
	maximum = 30
	95th percentile = 21.5
	99th percentile = 24.5
Slowest flit = 108242
Fragmentation average = 0
	minimum = 0
	maximum = 0
Injected packet rate average = 0.396519
	minimum = 0.121364 (at node 3)
	maximum = 0.603242 (at node 7)
Accepted packet rate average = 0.39629
	minimum = 0.121091 (at node 5)
	maximum = 0.603152 (at node 8)
Injected flit rate average = 0.396519
	minimum = 0.121364 (at node 3)
	maximum = 0.603242 (at node 7)
Accepted flit rate average= 0.39629
	minimum = 0.121091 (at node 5)
	maximum = 0.603152 (at node 8)
Injected packet length average = 1
Accepted packet length average = 1
Total in-flight flits = 80 (80 measured)
====== Peak Queue Occupancy Statistics (Absolute Max) ======
  Overall Max VC Occupancy = 1
  Overall Max Buffer Occupancy = 2
latency change    = 0.00884579
throughput change = 0.052825
Class 0:
Packet latency average = 13.3385
	minimum = 8
	maximum = 30
	95th percentile = 21.5
	99th percentile = 24.5
Network latency average = 13.3385
	minimum = 8
	maximum = 30
	95th percentile = 21.5
	99th percentile = 24.5
Slowest packet = 108242
Flit latency average = 13.3384
	minimum = 8
	maximum = 30
	95th percentile = 21.5
	99th percentile = 24.5
Slowest flit = 108242
Fragmentation average = 0
	minimum = 0
	maximum = 0
Injected packet rate average = 0.413571
	minimum = 0.161611 (at node 3)
	maximum = 0.6035 (at node 7)
Accepted packet rate average = 0.413383
	minimum = 0.161306 (at node 5)
	maximum = 0.603444 (at node 8)
Injected flit rate average = 0.413571
	minimum = 0.161611 (at node 3)
	maximum = 0.6035 (at node 7)
Accepted flit rate average= 0.413383
	minimum = 0.161306 (at node 5)
	maximum = 0.603444 (at node 8)
Injected packet length average = 1
Accepted packet length average = 1
Total in-flight flits = 73 (73 measured)
====== Peak Queue Occupancy Statistics (Absolute Max) ======
  Overall Max VC Occupancy = 1
  Overall Max Buffer Occupancy = 2
latency change    = 0.00655228
throughput change = 0.0413495
Class 0:
Packet latency average = 13.405
	minimum = 8
	maximum = 30
	95th percentile = 21.5
	99th percentile = 24.5
Network latency average = 13.405
	minimum = 8
	maximum = 30
	95th percentile = 21.5
	99th percentile = 24.5
Slowest packet = 108242
Flit latency average = 13.405
	minimum = 8
	maximum = 30
	95th percentile = 21.5
	99th percentile = 24.5
Slowest flit = 108242
Fragmentation average = 0
	minimum = 0
	maximum = 0
Injected packet rate average = 0.428014
	minimum = 0.193718 (at node 3)
	maximum = 0.603487 (at node 7)
Accepted packet rate average = 0.427849
	minimum = 0.193513 (at node 5)
	maximum = 0.603436 (at node 8)
Injected flit rate average = 0.428014
	minimum = 0.193718 (at node 3)
	maximum = 0.603487 (at node 7)
Accepted flit rate average= 0.427849
	minimum = 0.193513 (at node 5)
	maximum = 0.603436 (at node 8)
Injected packet length average = 1
Accepted packet length average = 1
Total in-flight flits = 70 (70 measured)
====== Peak Queue Occupancy Statistics (Absolute Max) ======
  Overall Max VC Occupancy = 1
  Overall Max Buffer Occupancy = 2
latency change    = 0.00496296
throughput change = 0.0338117
Class 0:
Packet latency average = 13.4584
	minimum = 8
	maximum = 30
	95th percentile = 21.5
	99th percentile = 24.5
Network latency average = 13.4584
	minimum = 8
	maximum = 30
	95th percentile = 21.5
	99th percentile = 24.5
Slowest packet = 108242
Flit latency average = 13.4583
	minimum = 8
	maximum = 30
	95th percentile = 21.5
	99th percentile = 24.5
Slowest flit = 108242
Fragmentation average = 0
	minimum = 0
	maximum = 0
Injected packet rate average = 0.440153
	minimum = 0.222238 (at node 3)
	maximum = 0.602286 (at node 7)
Accepted packet rate average = 0.439992
	minimum = 0.222071 (at node 5)
	maximum = 0.602262 (at node 8)
Injected flit rate average = 0.440153
	minimum = 0.222238 (at node 3)
	maximum = 0.602286 (at node 7)
Accepted flit rate average= 0.439992
	minimum = 0.222071 (at node 5)
	maximum = 0.602262 (at node 8)
Injected packet length average = 1
Accepted packet length average = 1
Total in-flight flits = 73 (73 measured)
====== Peak Queue Occupancy Statistics (Absolute Max) ======
  Overall Max VC Occupancy = 1
  Overall Max Buffer Occupancy = 2
latency change    = 0.00396616
throughput change = 0.0275984
Draining all recorded packets ...
Draining remaining packets ...
Time taken is 48042 cycles
====== Overall Traffic Statistics ======
====== Traffic class 0 ======
Packet latency average = 13.4594 (1 samples)
	minimum = 8 (1 samples)
	maximum = 30 (1 samples)
Network latency average = 13.4594 (1 samples)
	minimum = 8 (1 samples)
	maximum = 30 (1 samples)
Flit latency average = 13.4598 (1 samples)
	minimum = 8 (1 samples)
	maximum = 30 (1 samples)
Fragmentation average = 0 (1 samples)
	minimum = 0 (1 samples)
	maximum = 0 (1 samples)
Injected packet rate average = 0.440153 (1 samples)
	minimum = 0.222238 (1 samples)
	maximum = 0.602286 (1 samples)
Accepted packet rate average = 0.439992 (1 samples)
	minimum = 0.222071 (1 samples)
	maximum = 0.602262 (1 samples)
Injected flit rate average = 0.440153 (1 samples)
	minimum = 0.222238 (1 samples)
	maximum = 0.602286 (1 samples)
Accepted flit rate average = 0.439992 (1 samples)
	minimum = 0.222071 (1 samples)
	maximum = 0.602262 (1 samples)
Injected packet size average = 1 (1 samples)
Accepted packet size average = 1 (1 samples)
Hops average = 3.55737 (1 samples)
Total run time 5.49302

