BEGIN Configuration File: D:\noc_huawei\noc\booksim2-noc_speedup_study\booksim2-noc_speedup_study\tests\data\results\p3_ramp_to_0p6_hold_current_scheme\tmp_configs\ordered_fill_racke_tree_s2202.config
num_vcs     = 48;
vc_buf_size = 16;
wait_for_tail_credit = 1;

vc_allocator = islip;
sw_allocator = islip;
alloc_iters  = 16;

credit_delay   = 2;
routing_delay  = 0;
vc_alloc_delay = 1;
sw_alloc_delay = 1;
st_final_delay = 1;

input_speedup     = 1;
output_speedup    = 1;
internal_speedup  = 2.0;

sim_type = latency;
latency_thres  = 100000.0;
sim_count      = 1;
queue_sample_period_cycles = 0;

topology = mesh;
k  = 3;
n  = 2;

hybrid_transition_mode = linear_prob;
hybrid_xy_low_threshold = 0.35;
hybrid_racke_high_threshold = 0.65;
hybrid_buffer_soft_threshold = 0.50;
hybrid_buffer_hard_threshold = 0.85;
hybrid_buffer_release_threshold = 0.35;
hybrid_rate_soft_threshold = 0.55;
hybrid_rate_hard_threshold = 0.90;
hybrid_rate_weight = 0.25;
hybrid_congestion_alpha = 0.25;
hybrid_racke_increase_step = 0.25;
hybrid_racke_decrease_step = 0.10;
hybrid_epoch_cycles = 200;
hybrid_hold_cycles = 600;
hybrid_enable_midflight_override = 1;
hybrid_feedback_delay_per_hop = 1;
hybrid_flow_increase_step = 0.20;
hybrid_flow_decrease_step = 0.08;
hybrid_flow_hard_threshold = 0.95;

packet_size = 1;

scheduled_injection_rates = {0.10,0.20,0.30};
scheduled_phase_cycles = {1000,1000,1000};
scheduled_default_phase_cycles = 1000;

custom_perm_array = {4,7,6,5,1,2,0,8,3};
warmup_periods = 2;
seed = 2202;
hybrid_flow_hotspot_alpha = 0.85;
injection_process = ordered_fill;
perm_seed = 2202;
ordered_injection_phase_cycles = {3000,3000,3000,3000,3000,3000,3000,3000,3000,3000,3000,3000,3000,3000,3000,3000};
routing_function = racke_tree;
injection_rate = 0.6;
max_samples = 24;
ordered_injection_source_order = {4,7,6,5,1,2,0,8,3};
hybrid_flow_hotspot_threshold = 0.8;
ordered_injection_flow_peak_rate = 0.6;
ordered_injection_coefficients = {0.0833333333333333,0.166666666666667,0.25,0.333333333333333,0.416666666666667,0.5,0.583333333333333,0.666666666666667,0.75,0.833333333333333,0.916666666666667,1.0,1.0,1.0,1.0,1.0};
hybrid_stats_window_cycles = 3000;
traffic = custom_perm;
sample_period = 3000;

END Configuration File: D:\noc_huawei\noc\booksim2-noc_speedup_study\booksim2-noc_speedup_study\tests\data\results\p3_ramp_to_0p6_hold_current_scheme\tmp_configs\ordered_fill_racke_tree_s2202.config
Class 0:
Packet latency average = 10.1524
	minimum = 8
	maximum = 15
	95th percentile = 14.5
	99th percentile = 15.5
Network latency average = 10.1524
	minimum = 8
	maximum = 15
	95th percentile = 14.5
	99th percentile = 15.5
Slowest packet = 151
Flit latency average = 10.1524
	minimum = 8
	maximum = 15
	95th percentile = 14.5
	99th percentile = 15.5
Slowest flit = 151
Fragmentation average = 0
	minimum = 0
	maximum = 0
Injected packet rate average = 0.0497778
	minimum = 0 (at node 0)
	maximum = 0.448 (at node 4)
Accepted packet rate average = 0.0495926
	minimum = 0 (at node 0)
	maximum = 0.446333 (at node 1)
Injected flit rate average = 0.0497778
	minimum = 0 (at node 0)
	maximum = 0.448 (at node 4)
Accepted flit rate average= 0.0495926
	minimum = 0 (at node 0)
	maximum = 0.446333 (at node 1)
Injected packet length average = 1
Accepted packet length average = 1
Total in-flight flits = 5 (0 measured)
====== Peak Queue Occupancy Statistics (Absolute Max) ======
  Overall Max VC Occupancy = 1
  Overall Max Buffer Occupancy = 2
latency change    = 1
throughput change = 1
Class 0:
Packet latency average = 10.4353
	minimum = 8
	maximum = 22
	95th percentile = 15.5
	99th percentile = 20.5
Network latency average = 10.4353
	minimum = 8
	maximum = 22
	95th percentile = 15.5
	99th percentile = 20.5
Slowest packet = 2602
Flit latency average = 10.4353
	minimum = 8
	maximum = 22
	95th percentile = 15.5
	99th percentile = 20.5
Slowest flit = 2602
Fragmentation average = 0
	minimum = 0
	maximum = 0
Injected packet rate average = 0.0752963
	minimum = 0 (at node 0)
	maximum = 0.523667 (at node 4)
Accepted packet rate average = 0.0751667
	minimum = 0 (at node 0)
	maximum = 0.522833 (at node 1)
Injected flit rate average = 0.0752963
	minimum = 0 (at node 0)
	maximum = 0.523667 (at node 4)
Accepted flit rate average= 0.0751667
	minimum = 0 (at node 0)
	maximum = 0.522833 (at node 1)
Injected packet length average = 1
Accepted packet length average = 1
Total in-flight flits = 7 (0 measured)
====== Peak Queue Occupancy Statistics (Absolute Max) ======
  Overall Max VC Occupancy = 1
  Overall Max Buffer Occupancy = 2
latency change    = 0.0271172
throughput change = 0.340232
Warmed up ...Time used is 6000 cycles
Class 0:
Packet latency average = 11.1633
	minimum = 8
	maximum = 24
	95th percentile = 20.5
	99th percentile = 23.5
Network latency average = 11.1633
	minimum = 8
	maximum = 24
	95th percentile = 20.5
	99th percentile = 23.5
Slowest packet = 4589
Flit latency average = 11.1643
	minimum = 8
	maximum = 24
	95th percentile = 20.5
	99th percentile = 23.5
Slowest flit = 4589
Fragmentation average = 0
	minimum = 0
	maximum = 0
Injected packet rate average = 0.149185
	minimum = 0 (at node 0)
	maximum = 0.595 (at node 4)
Accepted packet rate average = 0.149037
	minimum = 0 (at node 2)
	maximum = 0.595667 (at node 1)
Injected flit rate average = 0.149185
	minimum = 0 (at node 0)
	maximum = 0.595 (at node 4)
Accepted flit rate average= 0.149037
	minimum = 0 (at node 2)
	maximum = 0.595667 (at node 1)
Injected packet length average = 1
Accepted packet length average = 1
Total in-flight flits = 11 (11 measured)
====== Peak Queue Occupancy Statistics (Absolute Max) ======
  Overall Max VC Occupancy = 1
  Overall Max Buffer Occupancy = 2
latency change    = 0.0652116
throughput change = 0.495651
Class 0:
Packet latency average = 11.6826
	minimum = 8
	maximum = 25
	95th percentile = 21.5
	99th percentile = 24.5
Network latency average = 11.6826
	minimum = 8
	maximum = 25
	95th percentile = 21.5
	99th percentile = 24.5
Slowest packet = 8221
Flit latency average = 11.6826
	minimum = 8
	maximum = 25
	95th percentile = 21.5
	99th percentile = 24.5
Slowest flit = 8221
Fragmentation average = 0
	minimum = 0
	maximum = 0
Injected packet rate average = 0.175611
	minimum = 0 (at node 0)
	maximum = 0.602 (at node 7)
Accepted packet rate average = 0.175222
	minimum = 0 (at node 2)
	maximum = 0.601 (at node 8)
Injected flit rate average = 0.175611
	minimum = 0 (at node 0)
	maximum = 0.602 (at node 7)
Accepted flit rate average= 0.175222
	minimum = 0 (at node 2)
	maximum = 0.601 (at node 8)
Injected packet length average = 1
Accepted packet length average = 1
Total in-flight flits = 28 (28 measured)
====== Peak Queue Occupancy Statistics (Absolute Max) ======
  Overall Max VC Occupancy = 1
  Overall Max Buffer Occupancy = 2
latency change    = 0.0444504
throughput change = 0.14944
Class 0:
Packet latency average = 11.819
	minimum = 8
	maximum = 26
	95th percentile = 21.5
	99th percentile = 24.5
Network latency average = 11.819
	minimum = 8
	maximum = 26
	95th percentile = 21.5
	99th percentile = 24.5
Slowest packet = 13497
Flit latency average = 11.819
	minimum = 8
	maximum = 26
	95th percentile = 21.5
	99th percentile = 24.5
Slowest flit = 13497
Fragmentation average = 0
	minimum = 0
	maximum = 0
Injected packet rate average = 0.201025
	minimum = 0 (at node 0)
	maximum = 0.600778 (at node 4)
Accepted packet rate average = 0.200827
	minimum = 0 (at node 3)
	maximum = 0.600778 (at node 1)
Injected flit rate average = 0.201025
	minimum = 0 (at node 0)
	maximum = 0.600778 (at node 4)
Accepted flit rate average= 0.200827
	minimum = 0 (at node 3)
	maximum = 0.600778 (at node 1)
Injected packet length average = 1
Accepted packet length average = 1
Total in-flight flits = 23 (23 measured)
====== Peak Queue Occupancy Statistics (Absolute Max) ======
  Overall Max VC Occupancy = 1
  Overall Max Buffer Occupancy = 2
latency change    = 0.0115409
throughput change = 0.127497
Class 0:
Packet latency average = 11.9278
	minimum = 8
	maximum = 27
	95th percentile = 21.5
	99th percentile = 24.5
Network latency average = 11.9278
	minimum = 8
	maximum = 27
	95th percentile = 21.5
	99th percentile = 24.5
Slowest packet = 26474
Flit latency average = 11.9277
	minimum = 8
	maximum = 27
	95th percentile = 21.5
	99th percentile = 24.5
Slowest flit = 26474
Fragmentation average = 0
	minimum = 0
	maximum = 0
Injected packet rate average = 0.225648
	minimum = 0 (at node 0)
	maximum = 0.60125 (at node 7)
Accepted packet rate average = 0.225481
	minimum = 0 (at node 3)
	maximum = 0.601083 (at node 8)
Injected flit rate average = 0.225648
	minimum = 0 (at node 0)
	maximum = 0.60125 (at node 7)
Accepted flit rate average= 0.225481
	minimum = 0 (at node 3)
	maximum = 0.601083 (at node 8)
Injected packet length average = 1
Accepted packet length average = 1
Total in-flight flits = 25 (25 measured)
====== Peak Queue Occupancy Statistics (Absolute Max) ======
  Overall Max VC Occupancy = 1
  Overall Max Buffer Occupancy = 2
latency change    = 0.00912025
throughput change = 0.109341
Class 0:
Packet latency average = 12.093
	minimum = 8
	maximum = 28
	95th percentile = 21.5
	99th percentile = 24.5
Network latency average = 12.093
	minimum = 8
	maximum = 28
	95th percentile = 21.5
	99th percentile = 24.5
Slowest packet = 30554
Flit latency average = 12.0929
	minimum = 8
	maximum = 28
	95th percentile = 21.5
	99th percentile = 24.5
Slowest flit = 30554
Fragmentation average = 0
	minimum = 0
	maximum = 0
Injected packet rate average = 0.250163
	minimum = 0 (at node 0)
	maximum = 0.5992 (at node 4)
Accepted packet rate average = 0.249911
	minimum = 0 (at node 3)
	maximum = 0.599067 (at node 1)
Injected flit rate average = 0.250163
	minimum = 0 (at node 0)
	maximum = 0.5992 (at node 4)
Accepted flit rate average= 0.249911
	minimum = 0 (at node 3)
	maximum = 0.599067 (at node 1)
Injected packet length average = 1
Accepted packet length average = 1
Total in-flight flits = 41 (41 measured)
====== Peak Queue Occupancy Statistics (Absolute Max) ======
  Overall Max VC Occupancy = 1
  Overall Max Buffer Occupancy = 2
latency change    = 0.0136594
throughput change = 0.0977533
Class 0:
Packet latency average = 12.3638
	minimum = 8
	maximum = 28
	95th percentile = 21.5
	99th percentile = 24.5
Network latency average = 12.3638
	minimum = 8
	maximum = 28
	95th percentile = 21.5
	99th percentile = 24.5
Slowest packet = 30554
Flit latency average = 12.3637
	minimum = 8
	maximum = 28
	95th percentile = 21.5
	99th percentile = 24.5
Slowest flit = 30554
Fragmentation average = 0
	minimum = 0
	maximum = 0
Injected packet rate average = 0.275006
	minimum = 0 (at node 0)
	maximum = 0.599167 (at node 7)
Accepted packet rate average = 0.274722
	minimum = 0 (at node 3)
	maximum = 0.599 (at node 8)
Injected flit rate average = 0.275006
	minimum = 0 (at node 0)
	maximum = 0.599167 (at node 7)
Accepted flit rate average= 0.274722
	minimum = 0 (at node 3)
	maximum = 0.599 (at node 8)
Injected packet length average = 1
Accepted packet length average = 1
Total in-flight flits = 53 (53 measured)
====== Peak Queue Occupancy Statistics (Absolute Max) ======
  Overall Max VC Occupancy = 1
  Overall Max Buffer Occupancy = 2
latency change    = 0.0219026
throughput change = 0.0903134
Class 0:
Packet latency average = 12.5831
	minimum = 8
	maximum = 28
	95th percentile = 21.5
	99th percentile = 24.5
Network latency average = 12.5831
	minimum = 8
	maximum = 28
	95th percentile = 21.5
	99th percentile = 24.5
Slowest packet = 30554
Flit latency average = 12.583
	minimum = 8
	maximum = 28
	95th percentile = 21.5
	99th percentile = 24.5
Slowest flit = 30554
Fragmentation average = 0
	minimum = 0
	maximum = 0
Injected packet rate average = 0.300143
	minimum = 0 (at node 3)
	maximum = 0.599429 (at node 7)
Accepted packet rate average = 0.299889
	minimum = 0 (at node 3)
	maximum = 0.599238 (at node 8)
Injected flit rate average = 0.300143
	minimum = 0 (at node 3)
	maximum = 0.599429 (at node 7)
Accepted flit rate average= 0.299889
	minimum = 0 (at node 3)
	maximum = 0.599238 (at node 8)
Injected packet length average = 1
Accepted packet length average = 1
Total in-flight flits = 55 (55 measured)
====== Peak Queue Occupancy Statistics (Absolute Max) ======
  Overall Max VC Occupancy = 1
  Overall Max Buffer Occupancy = 2
latency change    = 0.0174341
throughput change = 0.08392
Class 0:
Packet latency average = 12.7835
	minimum = 8
	maximum = 28
	95th percentile = 21.5
	99th percentile = 24.5
Network latency average = 12.7835
	minimum = 8
	maximum = 28
	95th percentile = 21.5
	99th percentile = 24.5
Slowest packet = 30554
Flit latency average = 12.7834
	minimum = 8
	maximum = 28
	95th percentile = 21.5
	99th percentile = 24.5
Slowest flit = 30554
Fragmentation average = 0
	minimum = 0
	maximum = 0
Injected packet rate average = 0.324708
	minimum = 0 (at node 3)
	maximum = 0.599833 (at node 7)
Accepted packet rate average = 0.32444
	minimum = 0 (at node 5)
	maximum = 0.5995 (at node 8)
Injected flit rate average = 0.324708
	minimum = 0 (at node 3)
	maximum = 0.599833 (at node 7)
Accepted flit rate average= 0.32444
	minimum = 0 (at node 5)
	maximum = 0.5995 (at node 8)
Injected packet length average = 1
Accepted packet length average = 1
Total in-flight flits = 65 (65 measured)
====== Peak Queue Occupancy Statistics (Absolute Max) ======
  Overall Max VC Occupancy = 1
  Overall Max Buffer Occupancy = 2
latency change    = 0.0156747
throughput change = 0.0756717
Class 0:
Packet latency average = 12.9754
	minimum = 8
	maximum = 30
	95th percentile = 21.5
	99th percentile = 24.5
Network latency average = 12.9754
	minimum = 8
	maximum = 30
	95th percentile = 21.5
	99th percentile = 24.5
Slowest packet = 88605
Flit latency average = 12.9753
	minimum = 8
	maximum = 30
	95th percentile = 21.5
	99th percentile = 24.5
Slowest flit = 88605
Fragmentation average = 0
	minimum = 0
	maximum = 0
Injected packet rate average = 0.349984
	minimum = 0.0172963 (at node 3)
	maximum = 0.599259 (at node 7)
Accepted packet rate average = 0.349695
	minimum = 0.0172222 (at node 5)
	maximum = 0.599148 (at node 1)
Injected flit rate average = 0.349984
	minimum = 0.0172963 (at node 3)
	maximum = 0.599259 (at node 7)
Accepted flit rate average= 0.349695
	minimum = 0.0172222 (at node 5)
	maximum = 0.599148 (at node 1)
Injected packet length average = 1
Accepted packet length average = 1
Total in-flight flits = 77 (77 measured)
====== Peak Queue Occupancy Statistics (Absolute Max) ======
  Overall Max VC Occupancy = 1
  Overall Max Buffer Occupancy = 2
latency change    = 0.0147916
throughput change = 0.0722219
Class 0:
Packet latency average = 13.1323
	minimum = 8
	maximum = 30
	95th percentile = 21.5
	99th percentile = 24.5
Network latency average = 13.1323
	minimum = 8
	maximum = 30
	95th percentile = 21.5
	99th percentile = 24.5
Slowest packet = 88605
Flit latency average = 13.1322
	minimum = 8
	maximum = 30
	95th percentile = 21.5
	99th percentile = 24.5
Slowest flit = 88605
Fragmentation average = 0
	minimum = 0
	maximum = 0
Injected packet rate average = 0.37487
	minimum = 0.0766667 (at node 3)
	maximum = 0.599433 (at node 7)
Accepted packet rate average = 0.374663
	minimum = 0.0764 (at node 5)
	maximum = 0.599267 (at node 8)
Injected flit rate average = 0.37487
	minimum = 0.0766667 (at node 3)
	maximum = 0.599433 (at node 7)
Accepted flit rate average= 0.374663
	minimum = 0.0764 (at node 5)
	maximum = 0.599267 (at node 8)
Injected packet length average = 1
Accepted packet length average = 1
Total in-flight flits = 63 (63 measured)
====== Peak Queue Occupancy Statistics (Absolute Max) ======
  Overall Max VC Occupancy = 1
  Overall Max Buffer Occupancy = 2
latency change    = 0.0119435
throughput change = 0.0666399
Class 0:
Packet latency average = 13.2476
	minimum = 8
	maximum = 30
	95th percentile = 21.5
	99th percentile = 24.5
Network latency average = 13.2476
	minimum = 8
	maximum = 30
	95th percentile = 21.5
	99th percentile = 24.5
Slowest packet = 88605
Flit latency average = 13.2475
	minimum = 8
	maximum = 30
	95th percentile = 21.5
	99th percentile = 24.5
Slowest flit = 88605
Fragmentation average = 0
	minimum = 0
	maximum = 0
Injected packet rate average = 0.39538
	minimum = 0.123121 (at node 3)
	maximum = 0.600485 (at node 7)
Accepted packet rate average = 0.395189
	minimum = 0.122848 (at node 5)
	maximum = 0.600303 (at node 8)
Injected flit rate average = 0.39538
	minimum = 0.123121 (at node 3)
	maximum = 0.600485 (at node 7)
Accepted flit rate average= 0.395189
	minimum = 0.122848 (at node 5)
	maximum = 0.600303 (at node 8)
Injected packet length average = 1
Accepted packet length average = 1
Total in-flight flits = 64 (64 measured)
====== Peak Queue Occupancy Statistics (Absolute Max) ======
  Overall Max VC Occupancy = 1
  Overall Max Buffer Occupancy = 2
latency change    = 0.0087042
throughput change = 0.0519387
Class 0:
Packet latency average = 13.3345
	minimum = 8
	maximum = 30
	95th percentile = 21.5
	99th percentile = 24.5
Network latency average = 13.3345
	minimum = 8
	maximum = 30
	95th percentile = 21.5
	99th percentile = 24.5
Slowest packet = 88605
Flit latency average = 13.3344
	minimum = 8
	maximum = 30
	95th percentile = 21.5
	99th percentile = 24.5
Slowest flit = 88605
Fragmentation average = 0
	minimum = 0
	maximum = 0
Injected packet rate average = 0.41242
	minimum = 0.163167 (at node 3)
	maximum = 0.60125 (at node 7)
Accepted packet rate average = 0.412173
	minimum = 0.162944 (at node 5)
	maximum = 0.601083 (at node 8)
Injected flit rate average = 0.41242
	minimum = 0.163167 (at node 3)
	maximum = 0.60125 (at node 7)
Accepted flit rate average= 0.412173
	minimum = 0.162944 (at node 5)
	maximum = 0.601083 (at node 8)
Injected packet length average = 1
Accepted packet length average = 1
Total in-flight flits = 87 (87 measured)
====== Peak Queue Occupancy Statistics (Absolute Max) ======
  Overall Max VC Occupancy = 1
  Overall Max Buffer Occupancy = 2
latency change    = 0.00651587
throughput change = 0.0412067
Class 0:
Packet latency average = 13.3994
	minimum = 8
	maximum = 30
	95th percentile = 21.5
	99th percentile = 24.5
Network latency average = 13.3994
	minimum = 8
	maximum = 30
	95th percentile = 21.5
	99th percentile = 24.5
Slowest packet = 88605
Flit latency average = 13.3993
	minimum = 8
	maximum = 30
	95th percentile = 21.5
	99th percentile = 24.5
Slowest flit = 88605
Fragmentation average = 0
	minimum = 0
	maximum = 0
Injected packet rate average = 0.426573
	minimum = 0.196051 (at node 3)
	maximum = 0.601462 (at node 7)
Accepted packet rate average = 0.426387
	minimum = 0.195795 (at node 5)
	maximum = 0.601359 (at node 8)
Injected flit rate average = 0.426573
	minimum = 0.196051 (at node 3)
	maximum = 0.601462 (at node 7)
Accepted flit rate average= 0.426387
	minimum = 0.195795 (at node 5)
	maximum = 0.601359 (at node 8)
Injected packet length average = 1
Accepted packet length average = 1
Total in-flight flits = 72 (72 measured)
====== Peak Queue Occupancy Statistics (Absolute Max) ======
  Overall Max VC Occupancy = 1
  Overall Max Buffer Occupancy = 2
latency change    = 0.00484601
throughput change = 0.0333373
Class 0:
Packet latency average = 13.4564
	minimum = 8
	maximum = 30
	95th percentile = 21.5
	99th percentile = 24.5
Network latency average = 13.4564
	minimum = 8
	maximum = 30
	95th percentile = 21.5
	99th percentile = 24.5
Slowest packet = 88605
Flit latency average = 13.4563
	minimum = 8
	maximum = 30
	95th percentile = 21.5
	99th percentile = 24.5
Slowest flit = 88605
Fragmentation average = 0
	minimum = 0
	maximum = 0
Injected packet rate average = 0.439169
	minimum = 0.2245 (at node 3)
	maximum = 0.601095 (at node 7)
Accepted packet rate average = 0.438995
	minimum = 0.224357 (at node 5)
	maximum = 0.601 (at node 8)
Injected flit rate average = 0.439169
	minimum = 0.2245 (at node 3)
	maximum = 0.601095 (at node 7)
Accepted flit rate average= 0.438995
	minimum = 0.224357 (at node 5)
	maximum = 0.601 (at node 8)
Injected packet length average = 1
Accepted packet length average = 1
Total in-flight flits = 73 (73 measured)
====== Peak Queue Occupancy Statistics (Absolute Max) ======
  Overall Max VC Occupancy = 1
  Overall Max Buffer Occupancy = 2
latency change    = 0.00423187
throughput change = 0.0287184
Draining all recorded packets ...
Draining remaining packets ...
Time taken is 48048 cycles
====== Overall Traffic Statistics ======
====== Traffic class 0 ======
Packet latency average = 13.4571 (1 samples)
	minimum = 8 (1 samples)
	maximum = 30 (1 samples)
Network latency average = 13.4571 (1 samples)
	minimum = 8 (1 samples)
	maximum = 30 (1 samples)
Flit latency average = 13.4578 (1 samples)
	minimum = 8 (1 samples)
	maximum = 30 (1 samples)
Fragmentation average = 0 (1 samples)
	minimum = 0 (1 samples)
	maximum = 0 (1 samples)
Injected packet rate average = 0.439169 (1 samples)
	minimum = 0.2245 (1 samples)
	maximum = 0.601095 (1 samples)
Accepted packet rate average = 0.438995 (1 samples)
	minimum = 0.224357 (1 samples)
	maximum = 0.601 (1 samples)
Injected flit rate average = 0.439169 (1 samples)
	minimum = 0.2245 (1 samples)
	maximum = 0.601095 (1 samples)
Accepted flit rate average = 0.438995 (1 samples)
	minimum = 0.224357 (1 samples)
	maximum = 0.601 (1 samples)
Injected packet size average = 1 (1 samples)
Accepted packet size average = 1 (1 samples)
Hops average = 3.55711 (1 samples)
Total run time 5.59284

