BEGIN Configuration File: D:\noc_huawei\noc\booksim2-noc_speedup_study\booksim2-noc_speedup_study\tests\data\results\p3_ramp_to_0p6_hold_current_scheme\tmp_configs\ordered_fill_racke_tree_s2201.config
num_vcs     = 48;
vc_buf_size = 16;
wait_for_tail_credit = 1;

vc_allocator = islip;
sw_allocator = islip;
alloc_iters  = 16;

credit_delay   = 2;
routing_delay  = 0;
vc_alloc_delay = 1;
sw_alloc_delay = 1;
st_final_delay = 1;

input_speedup     = 1;
output_speedup    = 1;
internal_speedup  = 2.0;

sim_type = latency;
latency_thres  = 100000.0;
sim_count      = 1;
queue_sample_period_cycles = 0;

topology = mesh;
k  = 3;
n  = 2;

hybrid_transition_mode = linear_prob;
hybrid_xy_low_threshold = 0.35;
hybrid_racke_high_threshold = 0.65;
hybrid_buffer_soft_threshold = 0.50;
hybrid_buffer_hard_threshold = 0.85;
hybrid_buffer_release_threshold = 0.35;
hybrid_rate_soft_threshold = 0.55;
hybrid_rate_hard_threshold = 0.90;
hybrid_rate_weight = 0.25;
hybrid_congestion_alpha = 0.25;
hybrid_racke_increase_step = 0.25;
hybrid_racke_decrease_step = 0.10;
hybrid_epoch_cycles = 200;
hybrid_hold_cycles = 600;
hybrid_enable_midflight_override = 1;
hybrid_feedback_delay_per_hop = 1;
hybrid_flow_increase_step = 0.20;
hybrid_flow_decrease_step = 0.08;
hybrid_flow_hard_threshold = 0.95;

packet_size = 1;

scheduled_injection_rates = {0.10,0.20,0.30};
scheduled_phase_cycles = {1000,1000,1000};
scheduled_default_phase_cycles = 1000;

custom_perm_array = {4,7,6,5,1,2,0,8,3};
warmup_periods = 2;
seed = 2201;
hybrid_flow_hotspot_alpha = 0.85;
injection_process = ordered_fill;
perm_seed = 2201;
ordered_injection_phase_cycles = {3000,3000,3000,3000,3000,3000,3000,3000,3000,3000,3000,3000,3000,3000,3000,3000};
routing_function = racke_tree;
injection_rate = 0.6;
max_samples = 24;
ordered_injection_source_order = {4,7,6,5,1,2,0,8,3};
hybrid_flow_hotspot_threshold = 0.8;
ordered_injection_flow_peak_rate = 0.6;
ordered_injection_coefficients = {0.0833333333333333,0.166666666666667,0.25,0.333333333333333,0.416666666666667,0.5,0.583333333333333,0.666666666666667,0.75,0.833333333333333,0.916666666666667,1.0,1.0,1.0,1.0,1.0};
hybrid_stats_window_cycles = 3000;
traffic = custom_perm;
sample_period = 3000;

END Configuration File: D:\noc_huawei\noc\booksim2-noc_speedup_study\booksim2-noc_speedup_study\tests\data\results\p3_ramp_to_0p6_hold_current_scheme\tmp_configs\ordered_fill_racke_tree_s2201.config
Class 0:
Packet latency average = 10.1393
	minimum = 8
	maximum = 15
	95th percentile = 14.5
	99th percentile = 14.5
Network latency average = 10.1393
	minimum = 8
	maximum = 15
	95th percentile = 14.5
	99th percentile = 14.5
Slowest packet = 163
Flit latency average = 10.1393
	minimum = 8
	maximum = 15
	95th percentile = 14.5
	99th percentile = 14.5
Slowest flit = 163
Fragmentation average = 0
	minimum = 0
	maximum = 0
Injected packet rate average = 0.0502222
	minimum = 0 (at node 0)
	maximum = 0.452 (at node 4)
Accepted packet rate average = 0.05
	minimum = 0 (at node 0)
	maximum = 0.45 (at node 1)
Injected flit rate average = 0.0502222
	minimum = 0 (at node 0)
	maximum = 0.452 (at node 4)
Accepted flit rate average= 0.05
	minimum = 0 (at node 0)
	maximum = 0.45 (at node 1)
Injected packet length average = 1
Accepted packet length average = 1
Total in-flight flits = 6 (0 measured)
====== Peak Queue Occupancy Statistics (Absolute Max) ======
  Overall Max VC Occupancy = 1
  Overall Max Buffer Occupancy = 2
latency change    = 1
throughput change = 1
Class 0:
Packet latency average = 10.4004
	minimum = 8
	maximum = 22
	95th percentile = 15.5
	99th percentile = 20.5
Network latency average = 10.4004
	minimum = 8
	maximum = 22
	95th percentile = 15.5
	99th percentile = 20.5
Slowest packet = 2903
Flit latency average = 10.4004
	minimum = 8
	maximum = 22
	95th percentile = 15.5
	99th percentile = 20.5
Slowest flit = 2903
Fragmentation average = 0
	minimum = 0
	maximum = 0
Injected packet rate average = 0.0735926
	minimum = 0 (at node 0)
	maximum = 0.516333 (at node 4)
Accepted packet rate average = 0.0735
	minimum = 0 (at node 0)
	maximum = 0.515833 (at node 1)
Injected flit rate average = 0.0735926
	minimum = 0 (at node 0)
	maximum = 0.516333 (at node 4)
Accepted flit rate average= 0.0735
	minimum = 0 (at node 0)
	maximum = 0.515833 (at node 1)
Injected packet length average = 1
Accepted packet length average = 1
Total in-flight flits = 5 (0 measured)
====== Peak Queue Occupancy Statistics (Absolute Max) ======
  Overall Max VC Occupancy = 1
  Overall Max Buffer Occupancy = 2
latency change    = 0.0251043
throughput change = 0.319728
Warmed up ...Time used is 6000 cycles
Class 0:
Packet latency average = 11.1476
	minimum = 8
	maximum = 24
	95th percentile = 20.5
	99th percentile = 23.5
Network latency average = 11.1476
	minimum = 8
	maximum = 24
	95th percentile = 20.5
	99th percentile = 23.5
Slowest packet = 6793
Flit latency average = 11.1499
	minimum = 8
	maximum = 24
	95th percentile = 20.5
	99th percentile = 23.5
Slowest flit = 6793
Fragmentation average = 0
	minimum = 0
	maximum = 0
Injected packet rate average = 0.150333
	minimum = 0 (at node 0)
	maximum = 0.608333 (at node 7)
Accepted packet rate average = 0.149778
	minimum = 0 (at node 2)
	maximum = 0.606333 (at node 8)
Injected flit rate average = 0.150333
	minimum = 0 (at node 0)
	maximum = 0.608333 (at node 7)
Accepted flit rate average= 0.149778
	minimum = 0 (at node 2)
	maximum = 0.606333 (at node 8)
Injected packet length average = 1
Accepted packet length average = 1
Total in-flight flits = 20 (20 measured)
====== Peak Queue Occupancy Statistics (Absolute Max) ======
  Overall Max VC Occupancy = 1
  Overall Max Buffer Occupancy = 2
latency change    = 0.0670289
throughput change = 0.509273
Class 0:
Packet latency average = 11.6794
	minimum = 8
	maximum = 26
	95th percentile = 21.5
	99th percentile = 24.5
Network latency average = 11.6794
	minimum = 8
	maximum = 26
	95th percentile = 21.5
	99th percentile = 24.5
Slowest packet = 8287
Flit latency average = 11.6801
	minimum = 8
	maximum = 26
	95th percentile = 21.5
	99th percentile = 24.5
Slowest flit = 8287
Fragmentation average = 0
	minimum = 0
	maximum = 0
Injected packet rate average = 0.175574
	minimum = 0 (at node 0)
	maximum = 0.6055 (at node 4)
Accepted packet rate average = 0.175185
	minimum = 0 (at node 2)
	maximum = 0.604833 (at node 1)
Injected flit rate average = 0.175574
	minimum = 0 (at node 0)
	maximum = 0.6055 (at node 4)
Accepted flit rate average= 0.175185
	minimum = 0 (at node 2)
	maximum = 0.604833 (at node 1)
Injected packet length average = 1
Accepted packet length average = 1
Total in-flight flits = 26 (26 measured)
====== Peak Queue Occupancy Statistics (Absolute Max) ======
  Overall Max VC Occupancy = 1
  Overall Max Buffer Occupancy = 2
latency change    = 0.0455388
throughput change = 0.145032
Class 0:
Packet latency average = 11.8155
	minimum = 8
	maximum = 27
	95th percentile = 21.5
	99th percentile = 24.5
Network latency average = 11.8155
	minimum = 8
	maximum = 27
	95th percentile = 21.5
	99th percentile = 24.5
Slowest packet = 18653
Flit latency average = 11.8159
	minimum = 8
	maximum = 27
	95th percentile = 21.5
	99th percentile = 24.5
Slowest flit = 18653
Fragmentation average = 0
	minimum = 0
	maximum = 0
Injected packet rate average = 0.201284
	minimum = 0 (at node 0)
	maximum = 0.604778 (at node 4)
Accepted packet rate average = 0.201
	minimum = 0 (at node 3)
	maximum = 0.604111 (at node 1)
Injected flit rate average = 0.201284
	minimum = 0 (at node 0)
	maximum = 0.604778 (at node 4)
Accepted flit rate average= 0.201
	minimum = 0 (at node 3)
	maximum = 0.604111 (at node 1)
Injected packet length average = 1
Accepted packet length average = 1
Total in-flight flits = 28 (28 measured)
====== Peak Queue Occupancy Statistics (Absolute Max) ======
  Overall Max VC Occupancy = 1
  Overall Max Buffer Occupancy = 2
latency change    = 0.0115159
throughput change = 0.128432
Class 0:
Packet latency average = 11.9306
	minimum = 8
	maximum = 27
	95th percentile = 21.5
	99th percentile = 24.5
Network latency average = 11.9306
	minimum = 8
	maximum = 27
	95th percentile = 21.5
	99th percentile = 24.5
Slowest packet = 18653
Flit latency average = 11.9308
	minimum = 8
	maximum = 27
	95th percentile = 21.5
	99th percentile = 24.5
Slowest flit = 18653
Fragmentation average = 0
	minimum = 0
	maximum = 0
Injected packet rate average = 0.226694
	minimum = 0 (at node 0)
	maximum = 0.60675 (at node 4)
Accepted packet rate average = 0.226454
	minimum = 0 (at node 3)
	maximum = 0.606583 (at node 1)
Injected flit rate average = 0.226694
	minimum = 0 (at node 0)
	maximum = 0.60675 (at node 4)
Accepted flit rate average= 0.226454
	minimum = 0 (at node 3)
	maximum = 0.606583 (at node 1)
Injected packet length average = 1
Accepted packet length average = 1
Total in-flight flits = 31 (31 measured)
====== Peak Queue Occupancy Statistics (Absolute Max) ======
  Overall Max VC Occupancy = 1
  Overall Max Buffer Occupancy = 2
latency change    = 0.00964776
throughput change = 0.112401
Class 0:
Packet latency average = 12.101
	minimum = 8
	maximum = 27
	95th percentile = 21.5
	99th percentile = 24.5
Network latency average = 12.101
	minimum = 8
	maximum = 27
	95th percentile = 21.5
	99th percentile = 24.5
Slowest packet = 18653
Flit latency average = 12.1011
	minimum = 8
	maximum = 27
	95th percentile = 21.5
	99th percentile = 24.5
Slowest flit = 18653
Fragmentation average = 0
	minimum = 0
	maximum = 0
Injected packet rate average = 0.251348
	minimum = 0 (at node 0)
	maximum = 0.6056 (at node 4)
Accepted packet rate average = 0.251074
	minimum = 0 (at node 3)
	maximum = 0.6054 (at node 1)
Injected flit rate average = 0.251348
	minimum = 0 (at node 0)
	maximum = 0.6056 (at node 4)
Accepted flit rate average= 0.251074
	minimum = 0 (at node 3)
	maximum = 0.6054 (at node 1)
Injected packet length average = 1
Accepted packet length average = 1
Total in-flight flits = 42 (42 measured)
====== Peak Queue Occupancy Statistics (Absolute Max) ======
  Overall Max VC Occupancy = 1
  Overall Max Buffer Occupancy = 2
latency change    = 0.0140819
throughput change = 0.0980602
Class 0:
Packet latency average = 12.3736
	minimum = 8
	maximum = 28
	95th percentile = 21.5
	99th percentile = 24.5
Network latency average = 12.3736
	minimum = 8
	maximum = 28
	95th percentile = 21.5
	99th percentile = 24.5
Slowest packet = 38203
Flit latency average = 12.3737
	minimum = 8
	maximum = 28
	95th percentile = 21.5
	99th percentile = 24.5
Slowest flit = 38203
Fragmentation average = 0
	minimum = 0
	maximum = 0
Injected packet rate average = 0.27634
	minimum = 0 (at node 0)
	maximum = 0.605 (at node 4)
Accepted packet rate average = 0.276056
	minimum = 0 (at node 3)
	maximum = 0.604833 (at node 1)
Injected flit rate average = 0.27634
	minimum = 0 (at node 0)
	maximum = 0.605 (at node 4)
Accepted flit rate average= 0.276056
	minimum = 0 (at node 3)
	maximum = 0.604833 (at node 1)
Injected packet length average = 1
Accepted packet length average = 1
Total in-flight flits = 51 (51 measured)
====== Peak Queue Occupancy Statistics (Absolute Max) ======
  Overall Max VC Occupancy = 1
  Overall Max Buffer Occupancy = 2
latency change    = 0.0220325
throughput change = 0.0904944
Class 0:
Packet latency average = 12.5882
	minimum = 8
	maximum = 28
	95th percentile = 21.5
	99th percentile = 24.5
Network latency average = 12.5882
	minimum = 8
	maximum = 28
	95th percentile = 21.5
	99th percentile = 24.5
Slowest packet = 38203
Flit latency average = 12.5882
	minimum = 8
	maximum = 28
	95th percentile = 21.5
	99th percentile = 24.5
Slowest flit = 38203
Fragmentation average = 0
	minimum = 0
	maximum = 0
Injected packet rate average = 0.301381
	minimum = 0 (at node 3)
	maximum = 0.604143 (at node 4)
Accepted packet rate average = 0.301132
	minimum = 0 (at node 3)
	maximum = 0.603952 (at node 1)
Injected flit rate average = 0.301381
	minimum = 0 (at node 3)
	maximum = 0.604143 (at node 4)
Accepted flit rate average= 0.301132
	minimum = 0 (at node 3)
	maximum = 0.603952 (at node 1)
Injected packet length average = 1
Accepted packet length average = 1
Total in-flight flits = 52 (52 measured)
====== Peak Queue Occupancy Statistics (Absolute Max) ======
  Overall Max VC Occupancy = 1
  Overall Max Buffer Occupancy = 2
latency change    = 0.0170446
throughput change = 0.0832748
Class 0:
Packet latency average = 12.8002
	minimum = 8
	maximum = 29
	95th percentile = 21.5
	99th percentile = 24.5
Network latency average = 12.8002
	minimum = 8
	maximum = 29
	95th percentile = 21.5
	99th percentile = 24.5
Slowest packet = 63102
Flit latency average = 12.8002
	minimum = 8
	maximum = 29
	95th percentile = 21.5
	99th percentile = 24.5
Slowest flit = 63102
Fragmentation average = 0
	minimum = 0
	maximum = 0
Injected packet rate average = 0.326833
	minimum = 0 (at node 3)
	maximum = 0.602833 (at node 4)
Accepted packet rate average = 0.326551
	minimum = 0 (at node 5)
	maximum = 0.602583 (at node 1)
Injected flit rate average = 0.326833
	minimum = 0 (at node 3)
	maximum = 0.602833 (at node 4)
Accepted flit rate average= 0.326551
	minimum = 0 (at node 5)
	maximum = 0.602583 (at node 1)
Injected packet length average = 1
Accepted packet length average = 1
Total in-flight flits = 66 (66 measured)
====== Peak Queue Occupancy Statistics (Absolute Max) ======
  Overall Max VC Occupancy = 1
  Overall Max Buffer Occupancy = 2
latency change    = 0.0165633
throughput change = 0.0778398
Class 0:
Packet latency average = 12.9927
	minimum = 8
	maximum = 29
	95th percentile = 21.5
	99th percentile = 24.5
Network latency average = 12.9927
	minimum = 8
	maximum = 29
	95th percentile = 21.5
	99th percentile = 24.5
Slowest packet = 63102
Flit latency average = 12.9927
	minimum = 8
	maximum = 29
	95th percentile = 21.5
	99th percentile = 24.5
Slowest flit = 63102
Fragmentation average = 0
	minimum = 0
	maximum = 0
Injected packet rate average = 0.351428
	minimum = 0.0155556 (at node 3)
	maximum = 0.601444 (at node 4)
Accepted packet rate average = 0.351165
	minimum = 0.0155185 (at node 5)
	maximum = 0.60137 (at node 1)
Injected flit rate average = 0.351428
	minimum = 0.0155556 (at node 3)
	maximum = 0.601444 (at node 4)
Accepted flit rate average= 0.351165
	minimum = 0.0155185 (at node 5)
	maximum = 0.60137 (at node 1)
Injected packet length average = 1
Accepted packet length average = 1
Total in-flight flits = 69 (69 measured)
====== Peak Queue Occupancy Statistics (Absolute Max) ======
  Overall Max VC Occupancy = 1
  Overall Max Buffer Occupancy = 2
latency change    = 0.0148134
throughput change = 0.0700916
Class 0:
Packet latency average = 13.1442
	minimum = 8
	maximum = 29
	95th percentile = 21.5
	99th percentile = 24.5
Network latency average = 13.1442
	minimum = 8
	maximum = 29
	95th percentile = 21.5
	99th percentile = 24.5
Slowest packet = 63102
Flit latency average = 13.1442
	minimum = 8
	maximum = 29
	95th percentile = 21.5
	99th percentile = 24.5
Slowest flit = 63102
Fragmentation average = 0
	minimum = 0
	maximum = 0
Injected packet rate average = 0.376081
	minimum = 0.0749667 (at node 3)
	maximum = 0.600267 (at node 4)
Accepted packet rate average = 0.375819
	minimum = 0.0747 (at node 5)
	maximum = 0.600067 (at node 1)
Injected flit rate average = 0.376081
	minimum = 0.0749667 (at node 3)
	maximum = 0.600267 (at node 4)
Accepted flit rate average= 0.375819
	minimum = 0.0747 (at node 5)
	maximum = 0.600067 (at node 1)
Injected packet length average = 1
Accepted packet length average = 1
Total in-flight flits = 76 (76 measured)
====== Peak Queue Occupancy Statistics (Absolute Max) ======
  Overall Max VC Occupancy = 1
  Overall Max Buffer Occupancy = 2
latency change    = 0.011527
throughput change = 0.0656006
Class 0:
Packet latency average = 13.254
	minimum = 8
	maximum = 29
	95th percentile = 21.5
	99th percentile = 24.5
Network latency average = 13.254
	minimum = 8
	maximum = 29
	95th percentile = 21.5
	99th percentile = 24.5
Slowest packet = 63102
Flit latency average = 13.254
	minimum = 8
	maximum = 29
	95th percentile = 21.5
	99th percentile = 24.5
Slowest flit = 63102
Fragmentation average = 0
	minimum = 0
	maximum = 0
Injected packet rate average = 0.39638
	minimum = 0.123424 (at node 3)
	maximum = 0.600788 (at node 4)
Accepted packet rate average = 0.396138
	minimum = 0.123182 (at node 5)
	maximum = 0.600636 (at node 1)
Injected flit rate average = 0.39638
	minimum = 0.123424 (at node 3)
	maximum = 0.600788 (at node 4)
Accepted flit rate average= 0.396138
	minimum = 0.123182 (at node 5)
	maximum = 0.600636 (at node 1)
Injected packet length average = 1
Accepted packet length average = 1
Total in-flight flits = 77 (77 measured)
====== Peak Queue Occupancy Statistics (Absolute Max) ======
  Overall Max VC Occupancy = 1
  Overall Max Buffer Occupancy = 2
latency change    = 0.00828315
throughput change = 0.0512941
Class 0:
Packet latency average = 13.3402
	minimum = 8
	maximum = 29
	95th percentile = 21.5
	99th percentile = 24.5
Network latency average = 13.3402
	minimum = 8
	maximum = 29
	95th percentile = 21.5
	99th percentile = 24.5
Slowest packet = 63102
Flit latency average = 13.3402
	minimum = 8
	maximum = 29
	95th percentile = 21.5
	99th percentile = 24.5
Slowest flit = 63102
Fragmentation average = 0
	minimum = 0
	maximum = 0
Injected packet rate average = 0.413262
	minimum = 0.162722 (at node 3)
	maximum = 0.600972 (at node 4)
Accepted packet rate average = 0.41304
	minimum = 0.162583 (at node 5)
	maximum = 0.600861 (at node 1)
Injected flit rate average = 0.413262
	minimum = 0.162722 (at node 3)
	maximum = 0.600972 (at node 4)
Accepted flit rate average= 0.41304
	minimum = 0.162583 (at node 5)
	maximum = 0.600861 (at node 1)
Injected packet length average = 1
Accepted packet length average = 1
Total in-flight flits = 77 (77 measured)
====== Peak Queue Occupancy Statistics (Absolute Max) ======
  Overall Max VC Occupancy = 1
  Overall Max Buffer Occupancy = 2
latency change    = 0.00646261
throughput change = 0.0409211
Class 0:
Packet latency average = 13.4051
	minimum = 8
	maximum = 29
	95th percentile = 21.5
	99th percentile = 24.5
Network latency average = 13.4051
	minimum = 8
	maximum = 29
	95th percentile = 21.5
	99th percentile = 24.5
Slowest packet = 63102
Flit latency average = 13.4051
	minimum = 8
	maximum = 29
	95th percentile = 21.5
	99th percentile = 24.5
Slowest flit = 63102
Fragmentation average = 0
	minimum = 0
	maximum = 0
Injected packet rate average = 0.427821
	minimum = 0.198051 (at node 3)
	maximum = 0.601154 (at node 4)
Accepted packet rate average = 0.427604
	minimum = 0.197821 (at node 5)
	maximum = 0.601051 (at node 1)
Injected flit rate average = 0.427821
	minimum = 0.198051 (at node 3)
	maximum = 0.601154 (at node 4)
Accepted flit rate average= 0.427604
	minimum = 0.197821 (at node 5)
	maximum = 0.601051 (at node 1)
Injected packet length average = 1
Accepted packet length average = 1
Total in-flight flits = 81 (81 measured)
====== Peak Queue Occupancy Statistics (Absolute Max) ======
  Overall Max VC Occupancy = 1
  Overall Max Buffer Occupancy = 2
latency change    = 0.00484589
throughput change = 0.0340592
Class 0:
Packet latency average = 13.4567
	minimum = 8
	maximum = 29
	95th percentile = 21.5
	99th percentile = 24.5
Network latency average = 13.4567
	minimum = 8
	maximum = 29
	95th percentile = 21.5
	99th percentile = 24.5
Slowest packet = 63102
Flit latency average = 13.4567
	minimum = 8
	maximum = 29
	95th percentile = 21.5
	99th percentile = 24.5
Slowest flit = 63102
Fragmentation average = 0
	minimum = 0
	maximum = 0
Injected packet rate average = 0.439783
	minimum = 0.226667 (at node 3)
	maximum = 0.601619 (at node 4)
Accepted packet rate average = 0.43959
	minimum = 0.226524 (at node 5)
	maximum = 0.6015 (at node 1)
Injected flit rate average = 0.439783
	minimum = 0.226667 (at node 3)
	maximum = 0.601619 (at node 4)
Accepted flit rate average= 0.43959
	minimum = 0.226524 (at node 5)
	maximum = 0.6015 (at node 1)
Injected packet length average = 1
Accepted packet length average = 1
Total in-flight flits = 78 (78 measured)
====== Peak Queue Occupancy Statistics (Absolute Max) ======
  Overall Max VC Occupancy = 1
  Overall Max Buffer Occupancy = 2
latency change    = 0.0038355
throughput change = 0.0272662
Draining all recorded packets ...
Draining remaining packets ...
Time taken is 48046 cycles
====== Overall Traffic Statistics ======
====== Traffic class 0 ======
Packet latency average = 13.4576 (1 samples)
	minimum = 8 (1 samples)
	maximum = 29 (1 samples)
Network latency average = 13.4576 (1 samples)
	minimum = 8 (1 samples)
	maximum = 29 (1 samples)
Flit latency average = 13.458 (1 samples)
	minimum = 8 (1 samples)
	maximum = 29 (1 samples)
Fragmentation average = 0 (1 samples)
	minimum = 0 (1 samples)
	maximum = 0 (1 samples)
Injected packet rate average = 0.439783 (1 samples)
	minimum = 0.226667 (1 samples)
	maximum = 0.601619 (1 samples)
Accepted packet rate average = 0.43959 (1 samples)
	minimum = 0.226524 (1 samples)
	maximum = 0.6015 (1 samples)
Injected flit rate average = 0.439783 (1 samples)
	minimum = 0.226667 (1 samples)
	maximum = 0.601619 (1 samples)
Accepted flit rate average = 0.43959 (1 samples)
	minimum = 0.226524 (1 samples)
	maximum = 0.6015 (1 samples)
Injected packet size average = 1 (1 samples)
Accepted packet size average = 1 (1 samples)
Hops average = 3.55853 (1 samples)
Total run time 5.56313

