BEGIN Configuration File: D:\noc_huawei\noc\booksim2-noc_speedup_study\booksim2-noc_speedup_study\tests\data\results\p3_ramp_to_0p6_hold_current_scheme\tmp_configs\ordered_fill_dim_order_s2202.config
num_vcs     = 48;
vc_buf_size = 16;
wait_for_tail_credit = 1;

vc_allocator = islip;
sw_allocator = islip;
alloc_iters  = 16;

credit_delay   = 2;
routing_delay  = 0;
vc_alloc_delay = 1;
sw_alloc_delay = 1;
st_final_delay = 1;

input_speedup     = 1;
output_speedup    = 1;
internal_speedup  = 2.0;

sim_type = latency;
latency_thres  = 100000.0;
sim_count      = 1;
queue_sample_period_cycles = 0;

topology = mesh;
k  = 3;
n  = 2;

hybrid_transition_mode = linear_prob;
hybrid_xy_low_threshold = 0.35;
hybrid_racke_high_threshold = 0.65;
hybrid_buffer_soft_threshold = 0.50;
hybrid_buffer_hard_threshold = 0.85;
hybrid_buffer_release_threshold = 0.35;
hybrid_rate_soft_threshold = 0.55;
hybrid_rate_hard_threshold = 0.90;
hybrid_rate_weight = 0.25;
hybrid_congestion_alpha = 0.25;
hybrid_racke_increase_step = 0.25;
hybrid_racke_decrease_step = 0.10;
hybrid_epoch_cycles = 200;
hybrid_hold_cycles = 600;
hybrid_enable_midflight_override = 1;
hybrid_feedback_delay_per_hop = 1;
hybrid_flow_increase_step = 0.20;
hybrid_flow_decrease_step = 0.08;
hybrid_flow_hard_threshold = 0.95;

packet_size = 1;

scheduled_injection_rates = {0.10,0.20,0.30};
scheduled_phase_cycles = {1000,1000,1000};
scheduled_default_phase_cycles = 1000;

custom_perm_array = {4,7,6,5,1,2,0,8,3};
warmup_periods = 2;
seed = 2202;
hybrid_flow_hotspot_alpha = 0.85;
injection_process = ordered_fill;
perm_seed = 2202;
ordered_injection_phase_cycles = {3000,3000,3000,3000,3000,3000,3000,3000,3000,3000,3000,3000,3000,3000,3000,3000};
routing_function = dim_order;
injection_rate = 0.6;
max_samples = 24;
ordered_injection_source_order = {4,7,6,5,1,2,0,8,3};
hybrid_flow_hotspot_threshold = 0.8;
ordered_injection_flow_peak_rate = 0.6;
ordered_injection_coefficients = {0.0833333333333333,0.166666666666667,0.25,0.333333333333333,0.416666666666667,0.5,0.583333333333333,0.666666666666667,0.75,0.833333333333333,0.916666666666667,1.0,1.0,1.0,1.0,1.0};
hybrid_stats_window_cycles = 3000;
traffic = custom_perm;
sample_period = 3000;

END Configuration File: D:\noc_huawei\noc\booksim2-noc_speedup_study\booksim2-noc_speedup_study\tests\data\results\p3_ramp_to_0p6_hold_current_scheme\tmp_configs\ordered_fill_dim_order_s2202.config
Class 0:
Packet latency average = 8
	minimum = 8
	maximum = 8
	95th percentile = 8.5
	99th percentile = 8.5
Network latency average = 8
	minimum = 8
	maximum = 8
	95th percentile = 8.5
	99th percentile = 8.5
Slowest packet = 0
Flit latency average = 8
	minimum = 8
	maximum = 8
	95th percentile = 8.5
	99th percentile = 8.5
Slowest flit = 0
Fragmentation average = 0
	minimum = 0
	maximum = 0
Injected packet rate average = 0.0497778
	minimum = 0 (at node 0)
	maximum = 0.448 (at node 4)
Accepted packet rate average = 0.0496667
	minimum = 0 (at node 0)
	maximum = 0.447 (at node 1)
Injected flit rate average = 0.0497778
	minimum = 0 (at node 0)
	maximum = 0.448 (at node 4)
Accepted flit rate average= 0.0496667
	minimum = 0 (at node 0)
	maximum = 0.447 (at node 1)
Injected packet length average = 1
Accepted packet length average = 1
Total in-flight flits = 3 (0 measured)
====== Peak Queue Occupancy Statistics (Absolute Max) ======
  Overall Max VC Occupancy = 1
  Overall Max Buffer Occupancy = 1
latency change    = 1
throughput change = 1
Class 0:
Packet latency average = 8
	minimum = 8
	maximum = 8
	95th percentile = 8.5
	99th percentile = 8.5
Network latency average = 8
	minimum = 8
	maximum = 8
	95th percentile = 8.5
	99th percentile = 8.5
Slowest packet = 0
Flit latency average = 8
	minimum = 8
	maximum = 8
	95th percentile = 8.5
	99th percentile = 8.5
Slowest flit = 0
Fragmentation average = 0
	minimum = 0
	maximum = 0
Injected packet rate average = 0.0752963
	minimum = 0 (at node 0)
	maximum = 0.523667 (at node 4)
Accepted packet rate average = 0.0752037
	minimum = 0 (at node 0)
	maximum = 0.523167 (at node 1)
Injected flit rate average = 0.0752963
	minimum = 0 (at node 0)
	maximum = 0.523667 (at node 4)
Accepted flit rate average= 0.0752037
	minimum = 0 (at node 0)
	maximum = 0.523167 (at node 1)
Injected packet length average = 1
Accepted packet length average = 1
Total in-flight flits = 5 (0 measured)
====== Peak Queue Occupancy Statistics (Absolute Max) ======
  Overall Max VC Occupancy = 1
  Overall Max Buffer Occupancy = 1
latency change    = 0
throughput change = 0.339572
Warmed up ...Time used is 6000 cycles
Class 0:
Packet latency average = 8.34337
	minimum = 8
	maximum = 11
	95th percentile = 11.5
	99th percentile = 11.5
Network latency average = 8.34337
	minimum = 8
	maximum = 11
	95th percentile = 11.5
	99th percentile = 11.5
Slowest packet = 4067
Flit latency average = 8.34294
	minimum = 8
	maximum = 11
	95th percentile = 11.5
	99th percentile = 11.5
Slowest flit = 4067
Fragmentation average = 0
	minimum = 0
	maximum = 0
Injected packet rate average = 0.149185
	minimum = 0 (at node 0)
	maximum = 0.595 (at node 4)
Accepted packet rate average = 0.149037
	minimum = 0 (at node 2)
	maximum = 0.595333 (at node 1)
Injected flit rate average = 0.149185
	minimum = 0 (at node 0)
	maximum = 0.595 (at node 4)
Accepted flit rate average= 0.149037
	minimum = 0 (at node 2)
	maximum = 0.595333 (at node 1)
Injected packet length average = 1
Accepted packet length average = 1
Total in-flight flits = 9 (9 measured)
====== Peak Queue Occupancy Statistics (Absolute Max) ======
  Overall Max VC Occupancy = 1
  Overall Max Buffer Occupancy = 1
latency change    = 0.0411547
throughput change = 0.495403
Class 0:
Packet latency average = 8.7194
	minimum = 8
	maximum = 11
	95th percentile = 11.5
	99th percentile = 11.5
Network latency average = 8.7194
	minimum = 8
	maximum = 11
	95th percentile = 11.5
	99th percentile = 11.5
Slowest packet = 4067
Flit latency average = 8.71902
	minimum = 8
	maximum = 11
	95th percentile = 11.5
	99th percentile = 11.5
Slowest flit = 4067
Fragmentation average = 0
	minimum = 0
	maximum = 0
Injected packet rate average = 0.175611
	minimum = 0 (at node 0)
	maximum = 0.602 (at node 7)
Accepted packet rate average = 0.175315
	minimum = 0 (at node 2)
	maximum = 0.601333 (at node 8)
Injected flit rate average = 0.175611
	minimum = 0 (at node 0)
	maximum = 0.602 (at node 7)
Accepted flit rate average= 0.175315
	minimum = 0 (at node 2)
	maximum = 0.601333 (at node 8)
Injected packet length average = 1
Accepted packet length average = 1
Total in-flight flits = 21 (21 measured)
====== Peak Queue Occupancy Statistics (Absolute Max) ======
  Overall Max VC Occupancy = 1
  Overall Max Buffer Occupancy = 1
latency change    = 0.0431262
throughput change = 0.149889
Class 0:
Packet latency average = 8.75401
	minimum = 8
	maximum = 11
	95th percentile = 11.5
	99th percentile = 11.5
Network latency average = 8.75401
	minimum = 8
	maximum = 11
	95th percentile = 11.5
	99th percentile = 11.5
Slowest packet = 4067
Flit latency average = 8.75378
	minimum = 8
	maximum = 11
	95th percentile = 11.5
	99th percentile = 11.5
Slowest flit = 4067
Fragmentation average = 0
	minimum = 0
	maximum = 0
Injected packet rate average = 0.201025
	minimum = 0 (at node 0)
	maximum = 0.600778 (at node 4)
Accepted packet rate average = 0.200864
	minimum = 0 (at node 3)
	maximum = 0.600667 (at node 1)
Injected flit rate average = 0.201025
	minimum = 0 (at node 0)
	maximum = 0.600778 (at node 4)
Accepted flit rate average= 0.200864
	minimum = 0 (at node 3)
	maximum = 0.600667 (at node 1)
Injected packet length average = 1
Accepted packet length average = 1
Total in-flight flits = 18 (18 measured)
====== Peak Queue Occupancy Statistics (Absolute Max) ======
  Overall Max VC Occupancy = 1
  Overall Max Buffer Occupancy = 1
latency change    = 0.00395336
throughput change = 0.127197
Class 0:
Packet latency average = 8.83648
	minimum = 8
	maximum = 11
	95th percentile = 11.5
	99th percentile = 11.5
Network latency average = 8.83648
	minimum = 8
	maximum = 11
	95th percentile = 11.5
	99th percentile = 11.5
Slowest packet = 4067
Flit latency average = 8.83631
	minimum = 8
	maximum = 11
	95th percentile = 11.5
	99th percentile = 11.5
Slowest flit = 4067
Fragmentation average = 0
	minimum = 0
	maximum = 0
Injected packet rate average = 0.225648
	minimum = 0 (at node 0)
	maximum = 0.60125 (at node 7)
Accepted packet rate average = 0.225528
	minimum = 0 (at node 3)
	maximum = 0.60125 (at node 8)
Injected flit rate average = 0.225648
	minimum = 0 (at node 0)
	maximum = 0.60125 (at node 7)
Accepted flit rate average= 0.225528
	minimum = 0 (at node 3)
	maximum = 0.60125 (at node 8)
Injected packet length average = 1
Accepted packet length average = 1
Total in-flight flits = 18 (18 measured)
====== Peak Queue Occupancy Statistics (Absolute Max) ======
  Overall Max VC Occupancy = 1
  Overall Max Buffer Occupancy = 1
latency change    = 0.00933289
throughput change = 0.109359
Class 0:
Packet latency average = 9.03717
	minimum = 8
	maximum = 17
	95th percentile = 11.5
	99th percentile = 17.5
Network latency average = 9.03717
	minimum = 8
	maximum = 17
	95th percentile = 11.5
	99th percentile = 17.5
Slowest packet = 28447
Flit latency average = 9.03701
	minimum = 8
	maximum = 17
	95th percentile = 11.5
	99th percentile = 17.5
Slowest flit = 28447
Fragmentation average = 0
	minimum = 0
	maximum = 0
Injected packet rate average = 0.250163
	minimum = 0 (at node 0)
	maximum = 0.5992 (at node 4)
Accepted packet rate average = 0.24997
	minimum = 0 (at node 3)
	maximum = 0.599067 (at node 1)
Injected flit rate average = 0.250163
	minimum = 0 (at node 0)
	maximum = 0.5992 (at node 4)
Accepted flit rate average= 0.24997
	minimum = 0 (at node 3)
	maximum = 0.599067 (at node 1)
Injected packet length average = 1
Accepted packet length average = 1
Total in-flight flits = 31 (31 measured)
====== Peak Queue Occupancy Statistics (Absolute Max) ======
  Overall Max VC Occupancy = 1
  Overall Max Buffer Occupancy = 1
latency change    = 0.0222065
throughput change = 0.097782
Class 0:
Packet latency average = 9.3863
	minimum = 8
	maximum = 17
	95th percentile = 11.5
	99th percentile = 17.5
Network latency average = 9.3863
	minimum = 8
	maximum = 17
	95th percentile = 11.5
	99th percentile = 17.5
Slowest packet = 28447
Flit latency average = 9.38614
	minimum = 8
	maximum = 17
	95th percentile = 11.5
	99th percentile = 17.5
Slowest flit = 28447
Fragmentation average = 0
	minimum = 0
	maximum = 0
Injected packet rate average = 0.275006
	minimum = 0 (at node 0)
	maximum = 0.599167 (at node 7)
Accepted packet rate average = 0.274796
	minimum = 0 (at node 3)
	maximum = 0.599167 (at node 8)
Injected flit rate average = 0.275006
	minimum = 0 (at node 0)
	maximum = 0.599167 (at node 7)
Accepted flit rate average= 0.274796
	minimum = 0 (at node 3)
	maximum = 0.599167 (at node 8)
Injected packet length average = 1
Accepted packet length average = 1
Total in-flight flits = 39 (39 measured)
====== Peak Queue Occupancy Statistics (Absolute Max) ======
  Overall Max VC Occupancy = 1
  Overall Max Buffer Occupancy = 1
latency change    = 0.0371962
throughput change = 0.090343
Class 0:
Packet latency average = 13.9676
	minimum = 8
	maximum = 693
	95th percentile = 27.5
	99th percentile = 134.5
Network latency average = 13.7532
	minimum = 8
	maximum = 670
	95th percentile = 27.5
	99th percentile = 122.5
Slowest packet = 56958
Flit latency average = 13.7527
	minimum = 8
	maximum = 670
	95th percentile = 27.5
	99th percentile = 122.5
Slowest flit = 56958
Fragmentation average = 0
	minimum = 0
	maximum = 0
Injected packet rate average = 0.300122
	minimum = 0 (at node 3)
	maximum = 0.600286 (at node 7)
Accepted packet rate average = 0.299095
	minimum = 0 (at node 3)
	maximum = 0.600095 (at node 8)
Injected flit rate average = 0.300122
	minimum = 0 (at node 3)
	maximum = 0.600286 (at node 7)
Accepted flit rate average= 0.299095
	minimum = 0 (at node 3)
	maximum = 0.600095 (at node 8)
Injected packet length average = 1
Accepted packet length average = 1
Total in-flight flits = 199 (199 measured)
====== Peak Queue Occupancy Statistics (Absolute Max) ======
  Overall Max VC Occupancy = 1
  Overall Max Buffer Occupancy = 48
latency change    = 0.327997
throughput change = 0.0812415
Class 0:
Packet latency average = 28.5707
	minimum = 8
	maximum = 1390
	95th percentile = 90.5
	99th percentile = 491.5
Network latency average = 20.5771
	minimum = 8
	maximum = 1158
	95th percentile = 83.5
	99th percentile = 262.5
Slowest packet = 61034
Flit latency average = 20.5762
	minimum = 8
	maximum = 1158
	95th percentile = 83.5
	99th percentile = 262.5
Slowest flit = 61034
Fragmentation average = 0
	minimum = 0
	maximum = 0
Injected packet rate average = 0.322032
	minimum = 0 (at node 3)
	maximum = 0.599917 (at node 7)
Accepted packet rate average = 0.321028
	minimum = 0 (at node 5)
	maximum = 0.599833 (at node 8)
Injected flit rate average = 0.322032
	minimum = 0 (at node 3)
	maximum = 0.599917 (at node 7)
Accepted flit rate average= 0.321028
	minimum = 0 (at node 5)
	maximum = 0.599833 (at node 8)
Injected packet length average = 1
Accepted packet length average = 1
Total in-flight flits = 223 (223 measured)
====== Peak Queue Occupancy Statistics (Absolute Max) ======
  Overall Max VC Occupancy = 1
  Overall Max Buffer Occupancy = 48
latency change    = 0.51112
throughput change = 0.0683198
Class 0:
Packet latency average = 66.3582
	minimum = 8
	maximum = 1852
	95th percentile = 439.5
	99th percentile = 999.5
Network latency average = 31.483
	minimum = 8
	maximum = 1828
	95th percentile = 131.5
	99th percentile = 407.5
Slowest packet = 77162
Flit latency average = 31.4816
	minimum = 8
	maximum = 1828
	95th percentile = 131.5
	99th percentile = 407.5
Slowest flit = 77389
Fragmentation average = 0
	minimum = 0
	maximum = 0
Injected packet rate average = 0.343272
	minimum = 0.0168889 (at node 3)
	maximum = 0.599074 (at node 7)
Accepted packet rate average = 0.341465
	minimum = 0.0167778 (at node 5)
	maximum = 0.598889 (at node 8)
Injected flit rate average = 0.343272
	minimum = 0.0168889 (at node 3)
	maximum = 0.599074 (at node 7)
Accepted flit rate average= 0.341465
	minimum = 0.0167778 (at node 5)
	maximum = 0.598889 (at node 8)
Injected packet length average = 1
Accepted packet length average = 1
Total in-flight flits = 446 (446 measured)
====== Peak Queue Occupancy Statistics (Absolute Max) ======
  Overall Max VC Occupancy = 1
  Overall Max Buffer Occupancy = 48
latency change    = 0.569448
throughput change = 0.0598516
Class 0:
Packet latency average = 124.131
	minimum = 8
	maximum = 2343
	95th percentile = 994.5
	99th percentile = 999.5
Network latency average = 40.0373
	minimum = 8
	maximum = 2205
	95th percentile = 178.5
	99th percentile = 513.5
Slowest packet = 77162
Flit latency average = 40.0357
	minimum = 8
	maximum = 2205
	95th percentile = 178.5
	99th percentile = 513.5
Slowest flit = 87344
Fragmentation average = 0
	minimum = 0
	maximum = 0
Injected packet rate average = 0.364448
	minimum = 0.0759667 (at node 3)
	maximum = 0.6002 (at node 7)
Accepted packet rate average = 0.362789
	minimum = 0.0757667 (at node 5)
	maximum = 0.6001 (at node 8)
Injected flit rate average = 0.364448
	minimum = 0.0759667 (at node 3)
	maximum = 0.6002 (at node 7)
Accepted flit rate average= 0.362789
	minimum = 0.0757667 (at node 5)
	maximum = 0.6001 (at node 8)
Injected packet length average = 1
Accepted packet length average = 1
Total in-flight flits = 455 (455 measured)
====== Peak Queue Occupancy Statistics (Absolute Max) ======
  Overall Max VC Occupancy = 1
  Overall Max Buffer Occupancy = 48
latency change    = 0.465417
throughput change = 0.0587776
Class 0:
Packet latency average = 191.191
	minimum = 8
	maximum = 2793
	95th percentile = 999.5
	99th percentile = 999.5
Network latency average = 46.912
	minimum = 8
	maximum = 2683
	95th percentile = 222.5
	99th percentile = 567.5
Slowest packet = 91583
Flit latency average = 46.9103
	minimum = 8
	maximum = 2683
	95th percentile = 222.5
	99th percentile = 567.5
Slowest flit = 91583
Fragmentation average = 0
	minimum = 0
	maximum = 0
Injected packet rate average = 0.381997
	minimum = 0.123758 (at node 3)
	maximum = 0.600242 (at node 7)
Accepted packet rate average = 0.380468
	minimum = 0.123606 (at node 5)
	maximum = 0.600121 (at node 8)
Injected flit rate average = 0.381997
	minimum = 0.123758 (at node 3)
	maximum = 0.600242 (at node 7)
Accepted flit rate average= 0.380468
	minimum = 0.123606 (at node 5)
	maximum = 0.600121 (at node 8)
Injected packet length average = 1
Accepted packet length average = 1
Total in-flight flits = 462 (462 measured)
====== Peak Queue Occupancy Statistics (Absolute Max) ======
  Overall Max VC Occupancy = 1
  Overall Max Buffer Occupancy = 48
latency change    = 0.350749
throughput change = 0.0464668
Class 0:
Packet latency average = 266.806
	minimum = 8
	maximum = 3388
	95th percentile = 999.5
	99th percentile = 999.5
Network latency average = 52.2126
	minimum = 8
	maximum = 2683
	95th percentile = 260.5
	99th percentile = 619.5
Slowest packet = 91583
Flit latency average = 52.2109
	minimum = 8
	maximum = 2683
	95th percentile = 260.5
	99th percentile = 619.5
Slowest flit = 91583
Fragmentation average = 0
	minimum = 0
	maximum = 0
Injected packet rate average = 0.396315
	minimum = 0.163 (at node 3)
	maximum = 0.599917 (at node 7)
Accepted packet rate average = 0.394935
	minimum = 0.162917 (at node 5)
	maximum = 0.599806 (at node 8)
Injected flit rate average = 0.396315
	minimum = 0.163 (at node 3)
	maximum = 0.599917 (at node 7)
Accepted flit rate average= 0.394935
	minimum = 0.162917 (at node 5)
	maximum = 0.599806 (at node 8)
Injected packet length average = 1
Accepted packet length average = 1
Total in-flight flits = 454 (454 measured)
====== Peak Queue Occupancy Statistics (Absolute Max) ======
  Overall Max VC Occupancy = 1
  Overall Max Buffer Occupancy = 48
latency change    = 0.283409
throughput change = 0.0366318
Class 0:
Packet latency average = 346.83
	minimum = 8
	maximum = 3910
	95th percentile = 999.5
	99th percentile = 999.5
Network latency average = 56.0867
	minimum = 8
	maximum = 2683
	95th percentile = 276.5
	99th percentile = 650.5
Slowest packet = 91583
Flit latency average = 56.085
	minimum = 8
	maximum = 2683
	95th percentile = 276.5
	99th percentile = 650.5
Slowest flit = 91583
Fragmentation average = 0
	minimum = 0
	maximum = 0
Injected packet rate average = 0.408587
	minimum = 0.196436 (at node 3)
	maximum = 0.600308 (at node 4)
Accepted packet rate average = 0.407302
	minimum = 0.196231 (at node 5)
	maximum = 0.600231 (at node 1)
Injected flit rate average = 0.408587
	minimum = 0.196436 (at node 3)
	maximum = 0.600308 (at node 4)
Accepted flit rate average= 0.407302
	minimum = 0.196231 (at node 5)
	maximum = 0.600231 (at node 1)
Injected packet length average = 1
Accepted packet length average = 1
Total in-flight flits = 458 (458 measured)
====== Peak Queue Occupancy Statistics (Absolute Max) ======
  Overall Max VC Occupancy = 1
  Overall Max Buffer Occupancy = 48
latency change    = 0.23073
throughput change = 0.0303628
Class 0:
Packet latency average = 430.497
	minimum = 8
	maximum = 4196
	95th percentile = 999.5
	99th percentile = 999.5
Network latency average = 59.5037
	minimum = 8
	maximum = 2683
	95th percentile = 289.5
	99th percentile = 671.5
Slowest packet = 91583
Flit latency average = 59.502
	minimum = 8
	maximum = 2683
	95th percentile = 289.5
	99th percentile = 671.5
Slowest flit = 91583
Fragmentation average = 0
	minimum = 0
	maximum = 0
Injected packet rate average = 0.418955
	minimum = 0.225548 (at node 3)
	maximum = 0.600476 (at node 4)
Accepted packet rate average = 0.417772
	minimum = 0.225405 (at node 5)
	maximum = 0.600452 (at node 1)
Injected flit rate average = 0.418955
	minimum = 0.225548 (at node 3)
	maximum = 0.600476 (at node 4)
Accepted flit rate average= 0.417772
	minimum = 0.225405 (at node 5)
	maximum = 0.600452 (at node 1)
Injected packet length average = 1
Accepted packet length average = 1
Total in-flight flits = 454 (454 measured)
====== Peak Queue Occupancy Statistics (Absolute Max) ======
  Overall Max VC Occupancy = 1
  Overall Max Buffer Occupancy = 48
latency change    = 0.194349
throughput change = 0.0250627
Class 0:
Packet latency average = 517.946
	minimum = 8
	maximum = 4912
	95th percentile = 999.5
	99th percentile = 999.5
Network latency average = 62.2714
	minimum = 8
	maximum = 2683
	95th percentile = 310.5
	99th percentile = 674.5
Slowest packet = 91583
Flit latency average = 62.2698
	minimum = 8
	maximum = 2683
	95th percentile = 310.5
	99th percentile = 674.5
Slowest flit = 91583
Fragmentation average = 0
	minimum = 0
	maximum = 0
Injected packet rate average = 0.428158
	minimum = 0.250711 (at node 3)
	maximum = 0.599489 (at node 4)
Accepted packet rate average = 0.427049
	minimum = 0.250578 (at node 5)
	maximum = 0.5994 (at node 1)
Injected flit rate average = 0.428158
	minimum = 0.250711 (at node 3)
	maximum = 0.599489 (at node 4)
Accepted flit rate average= 0.427049
	minimum = 0.250578 (at node 5)
	maximum = 0.5994 (at node 1)
Injected packet length average = 1
Accepted packet length average = 1
Total in-flight flits = 455 (455 measured)
====== Peak Queue Occupancy Statistics (Absolute Max) ======
  Overall Max VC Occupancy = 1
  Overall Max Buffer Occupancy = 48
latency change    = 0.168839
throughput change = 0.0217232
Class 0:
Packet latency average = 607.176
	minimum = 8
	maximum = 5433
	95th percentile = 999.5
	99th percentile = 999.5
Network latency average = 64.3643
	minimum = 8
	maximum = 2683
	95th percentile = 313.5
	99th percentile = 674.5
Slowest packet = 91583
Flit latency average = 64.3628
	minimum = 8
	maximum = 2683
	95th percentile = 313.5
	99th percentile = 674.5
Slowest flit = 91583
Fragmentation average = 0
	minimum = 0
	maximum = 0
Injected packet rate average = 0.436204
	minimum = 0.269896 (at node 8)
	maximum = 0.600146 (at node 4)
Accepted packet rate average = 0.435157
	minimum = 0.266688 (at node 3)
	maximum = 0.600125 (at node 1)
Injected flit rate average = 0.436204
	minimum = 0.269896 (at node 8)
	maximum = 0.600146 (at node 4)
Accepted flit rate average= 0.435157
	minimum = 0.266688 (at node 3)
	maximum = 0.600125 (at node 1)
Injected packet length average = 1
Accepted packet length average = 1
Total in-flight flits = 459 (459 measured)
====== Peak Queue Occupancy Statistics (Absolute Max) ======
  Overall Max VC Occupancy = 1
  Overall Max Buffer Occupancy = 48
latency change    = 0.14696
throughput change = 0.0186324
Class 0:
Packet latency average = 697.055
	minimum = 8
	maximum = 5691
	95th percentile = 999.5
	99th percentile = 999.5
Network latency average = 66.4696
	minimum = 8
	maximum = 2683
	95th percentile = 323.5
	99th percentile = 674.5
Slowest packet = 91583
Flit latency average = 66.4682
	minimum = 8
	maximum = 2683
	95th percentile = 323.5
	99th percentile = 674.5
Slowest flit = 91583
Fragmentation average = 0
	minimum = 0
	maximum = 0
Injected packet rate average = 0.443094
	minimum = 0.289118 (at node 8)
	maximum = 0.60049 (at node 4)
Accepted packet rate average = 0.442118
	minimum = 0.285902 (at node 3)
	maximum = 0.600431 (at node 1)
Injected flit rate average = 0.443094
	minimum = 0.289118 (at node 8)
	maximum = 0.60049 (at node 4)
Accepted flit rate average= 0.442118
	minimum = 0.285902 (at node 3)
	maximum = 0.600431 (at node 1)
Injected packet length average = 1
Accepted packet length average = 1
Total in-flight flits = 455 (455 measured)
====== Peak Queue Occupancy Statistics (Absolute Max) ======
  Overall Max VC Occupancy = 1
  Overall Max Buffer Occupancy = 48
latency change    = 0.128941
throughput change = 0.015743
Class 0:
Packet latency average = 788.717
	minimum = 8
	maximum = 6409
	95th percentile = 999.5
	99th percentile = 999.5
Network latency average = 68.1568
	minimum = 8
	maximum = 2683
	95th percentile = 330.5
	99th percentile = 689.5
Slowest packet = 91583
Flit latency average = 68.1554
	minimum = 8
	maximum = 2683
	95th percentile = 330.5
	99th percentile = 689.5
Slowest flit = 91583
Fragmentation average = 0
	minimum = 0
	maximum = 0
Injected packet rate average = 0.44935
	minimum = 0.297426 (at node 8)
	maximum = 0.600815 (at node 4)
Accepted packet rate average = 0.448424
	minimum = 0.294241 (at node 3)
	maximum = 0.600778 (at node 1)
Injected flit rate average = 0.44935
	minimum = 0.297426 (at node 8)
	maximum = 0.600815 (at node 4)
Accepted flit rate average= 0.448424
	minimum = 0.294241 (at node 3)
	maximum = 0.600778 (at node 1)
Injected packet length average = 1
Accepted packet length average = 1
Total in-flight flits = 457 (457 measured)
====== Peak Queue Occupancy Statistics (Absolute Max) ======
  Overall Max VC Occupancy = 1
  Overall Max Buffer Occupancy = 48
latency change    = 0.116216
throughput change = 0.0140631
Class 0:
Packet latency average = 880.819
	minimum = 8
	maximum = 6992
	95th percentile = 999.5
	99th percentile = 999.5
Network latency average = 69.5046
	minimum = 8
	maximum = 2683
	95th percentile = 335.5
	99th percentile = 690.5
Slowest packet = 91583
Flit latency average = 69.5033
	minimum = 8
	maximum = 2683
	95th percentile = 335.5
	99th percentile = 690.5
Slowest flit = 91583
Fragmentation average = 0
	minimum = 0
	maximum = 0
Injected packet rate average = 0.454994
	minimum = 0.307158 (at node 8)
	maximum = 0.600702 (at node 4)
Accepted packet rate average = 0.454123
	minimum = 0.304439 (at node 3)
	maximum = 0.600667 (at node 1)
Injected flit rate average = 0.454994
	minimum = 0.307158 (at node 8)
	maximum = 0.600702 (at node 4)
Accepted flit rate average= 0.454123
	minimum = 0.304439 (at node 3)
	maximum = 0.600667 (at node 1)
Injected packet length average = 1
Accepted packet length average = 1
Total in-flight flits = 454 (454 measured)
====== Peak Queue Occupancy Statistics (Absolute Max) ======
  Overall Max VC Occupancy = 1
  Overall Max Buffer Occupancy = 48
latency change    = 0.104564
throughput change = 0.0125493
Class 0:
Packet latency average = 972.736
	minimum = 8
	maximum = 7165
	95th percentile = 999.5
	99th percentile = 999.5
Network latency average = 70.8728
	minimum = 8
	maximum = 2683
	95th percentile = 336.5
	99th percentile = 695.5
Slowest packet = 91583
Flit latency average = 70.8715
	minimum = 8
	maximum = 2683
	95th percentile = 336.5
	99th percentile = 695.5
Slowest flit = 91583
Fragmentation average = 0
	minimum = 0
	maximum = 0
Injected packet rate average = 0.460115
	minimum = 0.320783 (at node 8)
	maximum = 0.601117 (at node 4)
Accepted packet rate average = 0.459283
	minimum = 0.3181 (at node 3)
	maximum = 0.60105 (at node 1)
Injected flit rate average = 0.460115
	minimum = 0.320783 (at node 8)
	maximum = 0.601117 (at node 4)
Accepted flit rate average= 0.459283
	minimum = 0.3181 (at node 3)
	maximum = 0.60105 (at node 1)
Injected packet length average = 1
Accepted packet length average = 1
Total in-flight flits = 456 (456 measured)
====== Peak Queue Occupancy Statistics (Absolute Max) ======
  Overall Max VC Occupancy = 1
  Overall Max Buffer Occupancy = 48
latency change    = 0.0944931
throughput change = 0.011236
Class 0:
Packet latency average = 1065.68
	minimum = 8
	maximum = 7873
	95th percentile = 999.5
	99th percentile = 999.5
Network latency average = 72.0218
	minimum = 8
	maximum = 2683
	95th percentile = 345.5
	99th percentile = 703.5
Slowest packet = 91583
Flit latency average = 72.0206
	minimum = 8
	maximum = 2683
	95th percentile = 345.5
	99th percentile = 703.5
Slowest flit = 91583
Fragmentation average = 0
	minimum = 0
	maximum = 0
Injected packet rate average = 0.464556
	minimum = 0.325603 (at node 8)
	maximum = 0.60119 (at node 4)
Accepted packet rate average = 0.463781
	minimum = 0.322952 (at node 3)
	maximum = 0.601159 (at node 1)
Injected flit rate average = 0.464556
	minimum = 0.325603 (at node 8)
	maximum = 0.60119 (at node 4)
Accepted flit rate average= 0.463781
	minimum = 0.322952 (at node 3)
	maximum = 0.601159 (at node 1)
Injected packet length average = 1
Accepted packet length average = 1
Total in-flight flits = 445 (445 measured)
====== Peak Queue Occupancy Statistics (Absolute Max) ======
  Overall Max VC Occupancy = 1
  Overall Max Buffer Occupancy = 48
latency change    = 0.0872195
throughput change = 0.00969848
Class 0:
Packet latency average = 1158.55
	minimum = 8
	maximum = 8525
	95th percentile = 999.5
	99th percentile = 999.5
Network latency average = 72.9854
	minimum = 8
	maximum = 2683
	95th percentile = 349.5
	99th percentile = 703.5
Slowest packet = 91583
Flit latency average = 72.9842
	minimum = 8
	maximum = 2683
	95th percentile = 349.5
	99th percentile = 703.5
Slowest flit = 91583
Fragmentation average = 0
	minimum = 0
	maximum = 0
Injected packet rate average = 0.468746
	minimum = 0.334227 (at node 8)
	maximum = 0.601318 (at node 4)
Accepted packet rate average = 0.467993
	minimum = 0.331939 (at node 3)
	maximum = 0.601303 (at node 1)
Injected flit rate average = 0.468746
	minimum = 0.334227 (at node 8)
	maximum = 0.601318 (at node 4)
Accepted flit rate average= 0.467993
	minimum = 0.331939 (at node 3)
	maximum = 0.601303 (at node 1)
Injected packet length average = 1
Accepted packet length average = 1
Total in-flight flits = 454 (454 measured)
====== Peak Queue Occupancy Statistics (Absolute Max) ======
  Overall Max VC Occupancy = 1
  Overall Max Buffer Occupancy = 48
latency change    = 0.080159
throughput change = 0.00900005
Draining all recorded packets ...
Class 0:
Remaining flits: 280306 281050 281693 281859 281929 282268 282284 282541 282639 282647 [...] (452 flits)
Measured flits: 280306 281050 281693 281859 281929 282268 282284 282541 282639 282647 [...] (424 flits)
Class 0:
Remaining flits: 287436 287678 287925 288165 288392 288636 288875 289057 289112 289113 [...] (456 flits)
Measured flits: 287436 287678 287925 288165 288392 288636 288875 289057 289112 289113 [...] (425 flits)
Class 0:
Remaining flits: 292503 292738 292982 293243 293484 293714 293846 293953 294203 294315 [...] (461 flits)
Measured flits: 292503 292738 292982 293243 293484 293714 293846 293953 294203 294315 [...] (426 flits)
Class 0:
Remaining flits: 296812 297261 297272 297518 297708 297770 298000 298008 298265 298280 [...] (466 flits)
Measured flits: 296812 297261 297272 297518 297708 297770 298000 298008 298265 298280 [...] (432 flits)
Class 0:
Remaining flits: 301905 302039 302053 302274 302295 302426 302577 302742 302821 302950 [...] (460 flits)
Measured flits: 301905 302039 302053 302274 302295 302426 302577 302742 302821 302950 [...] (431 flits)
Class 0:
Remaining flits: 306681 307272 307292 307542 307572 307652 307923 307928 308126 308368 [...] (457 flits)
Measured flits: 306681 307272 307292 307542 307572 307652 307923 307928 308126 308368 [...] (428 flits)
Class 0:
Remaining flits: 312483 312716 312966 313198 313318 313440 313675 313899 313913 313918 [...] (455 flits)
Measured flits: 312483 312716 312966 313198 313318 313440 313675 313899 313913 313918 [...] (422 flits)
Class 0:
Remaining flits: 317491 317731 317969 318211 318452 318689 318925 318932 319158 319266 [...] (456 flits)
Measured flits: 317491 317731 317969 318211 318452 318689 318925 318932 319158 319266 [...] (259 flits)
Class 0:
Remaining flits: 321601 322017 322053 322362 322659 322701 322920 322935 323038 323111 [...] (462 flits)
Measured flits: 321601 322053 322362 322701 322920 323038 323377 323801 324317 324466 [...] (95 flits)
Draining remaining packets ...
Time taken is 82008 cycles
====== Overall Traffic Statistics ======
====== Traffic class 0 ======
Packet latency average = 1558.09 (1 samples)
	minimum = 8 (1 samples)
	maximum = 10147 (1 samples)
Network latency average = 81.0077 (1 samples)
	minimum = 8 (1 samples)
	maximum = 2683 (1 samples)
Flit latency average = 75.978 (1 samples)
	minimum = 8 (1 samples)
	maximum = 2683 (1 samples)
Fragmentation average = 0 (1 samples)
	minimum = 0 (1 samples)
	maximum = 0 (1 samples)
Injected packet rate average = 0.468746 (1 samples)
	minimum = 0.334227 (1 samples)
	maximum = 0.601318 (1 samples)
Accepted packet rate average = 0.467993 (1 samples)
	minimum = 0.331939 (1 samples)
	maximum = 0.601303 (1 samples)
Injected flit rate average = 0.468746 (1 samples)
	minimum = 0.334227 (1 samples)
	maximum = 0.601318 (1 samples)
Accepted flit rate average = 0.467993 (1 samples)
	minimum = 0.331939 (1 samples)
	maximum = 0.601303 (1 samples)
Injected packet size average = 1 (1 samples)
Accepted packet size average = 1 (1 samples)
Hops average = 2.90944 (1 samples)
Total run time 27.8683

