BEGIN Configuration File: D:\noc_huawei\noc\booksim2-noc_speedup_study\booksim2-noc_speedup_study\tests\data\results\p3_ramp_to_0p6_hold_current_scheme\tmp_configs\ordered_fill_dim_order_s2203.config
num_vcs     = 48;
vc_buf_size = 16;
wait_for_tail_credit = 1;

vc_allocator = islip;
sw_allocator = islip;
alloc_iters  = 16;

credit_delay   = 2;
routing_delay  = 0;
vc_alloc_delay = 1;
sw_alloc_delay = 1;
st_final_delay = 1;

input_speedup     = 1;
output_speedup    = 1;
internal_speedup  = 2.0;

sim_type = latency;
latency_thres  = 100000.0;
sim_count      = 1;
queue_sample_period_cycles = 0;

topology = mesh;
k  = 3;
n  = 2;

hybrid_transition_mode = linear_prob;
hybrid_xy_low_threshold = 0.35;
hybrid_racke_high_threshold = 0.65;
hybrid_buffer_soft_threshold = 0.50;
hybrid_buffer_hard_threshold = 0.85;
hybrid_buffer_release_threshold = 0.35;
hybrid_rate_soft_threshold = 0.55;
hybrid_rate_hard_threshold = 0.90;
hybrid_rate_weight = 0.25;
hybrid_congestion_alpha = 0.25;
hybrid_racke_increase_step = 0.25;
hybrid_racke_decrease_step = 0.10;
hybrid_epoch_cycles = 200;
hybrid_hold_cycles = 600;
hybrid_enable_midflight_override = 1;
hybrid_feedback_delay_per_hop = 1;
hybrid_flow_increase_step = 0.20;
hybrid_flow_decrease_step = 0.08;
hybrid_flow_hard_threshold = 0.95;

packet_size = 1;

scheduled_injection_rates = {0.10,0.20,0.30};
scheduled_phase_cycles = {1000,1000,1000};
scheduled_default_phase_cycles = 1000;

custom_perm_array = {4,7,6,5,1,2,0,8,3};
warmup_periods = 2;
seed = 2203;
hybrid_flow_hotspot_alpha = 0.85;
injection_process = ordered_fill;
perm_seed = 2203;
ordered_injection_phase_cycles = {3000,3000,3000,3000,3000,3000,3000,3000,3000,3000,3000,3000,3000,3000,3000,3000};
routing_function = dim_order;
injection_rate = 0.6;
max_samples = 24;
ordered_injection_source_order = {4,7,6,5,1,2,0,8,3};
hybrid_flow_hotspot_threshold = 0.8;
ordered_injection_flow_peak_rate = 0.6;
ordered_injection_coefficients = {0.0833333333333333,0.166666666666667,0.25,0.333333333333333,0.416666666666667,0.5,0.583333333333333,0.666666666666667,0.75,0.833333333333333,0.916666666666667,1.0,1.0,1.0,1.0,1.0};
hybrid_stats_window_cycles = 3000;
traffic = custom_perm;
sample_period = 3000;

END Configuration File: D:\noc_huawei\noc\booksim2-noc_speedup_study\booksim2-noc_speedup_study\tests\data\results\p3_ramp_to_0p6_hold_current_scheme\tmp_configs\ordered_fill_dim_order_s2203.config
Class 0:
Packet latency average = 8
	minimum = 8
	maximum = 8
	95th percentile = 8.5
	99th percentile = 8.5
Network latency average = 8
	minimum = 8
	maximum = 8
	95th percentile = 8.5
	99th percentile = 8.5
Slowest packet = 0
Flit latency average = 8
	minimum = 8
	maximum = 8
	95th percentile = 8.5
	99th percentile = 8.5
Slowest flit = 0
Fragmentation average = 0
	minimum = 0
	maximum = 0
Injected packet rate average = 0.0478148
	minimum = 0 (at node 0)
	maximum = 0.430333 (at node 4)
Accepted packet rate average = 0.0477407
	minimum = 0 (at node 0)
	maximum = 0.429667 (at node 1)
Injected flit rate average = 0.0478148
	minimum = 0 (at node 0)
	maximum = 0.430333 (at node 4)
Accepted flit rate average= 0.0477407
	minimum = 0 (at node 0)
	maximum = 0.429667 (at node 1)
Injected packet length average = 1
Accepted packet length average = 1
Total in-flight flits = 2 (0 measured)
====== Peak Queue Occupancy Statistics (Absolute Max) ======
  Overall Max VC Occupancy = 1
  Overall Max Buffer Occupancy = 1
latency change    = 1
throughput change = 1
Class 0:
Packet latency average = 8
	minimum = 8
	maximum = 8
	95th percentile = 8.5
	99th percentile = 8.5
Network latency average = 8
	minimum = 8
	maximum = 8
	95th percentile = 8.5
	99th percentile = 8.5
Slowest packet = 0
Flit latency average = 8
	minimum = 8
	maximum = 8
	95th percentile = 8.5
	99th percentile = 8.5
Slowest flit = 0
Fragmentation average = 0
	minimum = 0
	maximum = 0
Injected packet rate average = 0.073963
	minimum = 0 (at node 0)
	maximum = 0.5135 (at node 4)
Accepted packet rate average = 0.0737963
	minimum = 0 (at node 0)
	maximum = 0.512667 (at node 1)
Injected flit rate average = 0.073963
	minimum = 0 (at node 0)
	maximum = 0.5135 (at node 4)
Accepted flit rate average= 0.0737963
	minimum = 0 (at node 0)
	maximum = 0.512667 (at node 1)
Injected packet length average = 1
Accepted packet length average = 1
Total in-flight flits = 9 (0 measured)
====== Peak Queue Occupancy Statistics (Absolute Max) ======
  Overall Max VC Occupancy = 1
  Overall Max Buffer Occupancy = 1
latency change    = 0
throughput change = 0.353074
Warmed up ...Time used is 6000 cycles
Class 0:
Packet latency average = 8.32677
	minimum = 8
	maximum = 11
	95th percentile = 11.5
	99th percentile = 11.5
Network latency average = 8.32677
	minimum = 8
	maximum = 11
	95th percentile = 11.5
	99th percentile = 11.5
Slowest packet = 4000
Flit latency average = 8.32604
	minimum = 8
	maximum = 11
	95th percentile = 11.5
	99th percentile = 11.5
Slowest flit = 4000
Fragmentation average = 0
	minimum = 0
	maximum = 0
Injected packet rate average = 0.148963
	minimum = 0 (at node 0)
	maximum = 0.6 (at node 4)
Accepted packet rate average = 0.148926
	minimum = 0 (at node 2)
	maximum = 0.599667 (at node 1)
Injected flit rate average = 0.148963
	minimum = 0 (at node 0)
	maximum = 0.6 (at node 4)
Accepted flit rate average= 0.148926
	minimum = 0 (at node 2)
	maximum = 0.599667 (at node 1)
Injected packet length average = 1
Accepted packet length average = 1
Total in-flight flits = 10 (10 measured)
====== Peak Queue Occupancy Statistics (Absolute Max) ======
  Overall Max VC Occupancy = 1
  Overall Max Buffer Occupancy = 1
latency change    = 0.0392433
throughput change = 0.504476
Class 0:
Packet latency average = 8.71555
	minimum = 8
	maximum = 11
	95th percentile = 11.5
	99th percentile = 11.5
Network latency average = 8.71555
	minimum = 8
	maximum = 11
	95th percentile = 11.5
	99th percentile = 11.5
Slowest packet = 4000
Flit latency average = 8.71487
	minimum = 8
	maximum = 11
	95th percentile = 11.5
	99th percentile = 11.5
Slowest flit = 4000
Fragmentation average = 0
	minimum = 0
	maximum = 0
Injected packet rate average = 0.17563
	minimum = 0 (at node 0)
	maximum = 0.604833 (at node 7)
Accepted packet rate average = 0.175556
	minimum = 0 (at node 2)
	maximum = 0.605333 (at node 8)
Injected flit rate average = 0.17563
	minimum = 0 (at node 0)
	maximum = 0.604833 (at node 7)
Accepted flit rate average= 0.175556
	minimum = 0 (at node 2)
	maximum = 0.605333 (at node 8)
Injected packet length average = 1
Accepted packet length average = 1
Total in-flight flits = 13 (13 measured)
====== Peak Queue Occupancy Statistics (Absolute Max) ======
  Overall Max VC Occupancy = 1
  Overall Max Buffer Occupancy = 1
latency change    = 0.044608
throughput change = 0.151688
Class 0:
Packet latency average = 8.74949
	minimum = 8
	maximum = 11
	95th percentile = 11.5
	99th percentile = 11.5
Network latency average = 8.74949
	minimum = 8
	maximum = 11
	95th percentile = 11.5
	99th percentile = 11.5
Slowest packet = 4000
Flit latency average = 8.74907
	minimum = 8
	maximum = 11
	95th percentile = 11.5
	99th percentile = 11.5
Slowest flit = 4000
Fragmentation average = 0
	minimum = 0
	maximum = 0
Injected packet rate average = 0.200173
	minimum = 0 (at node 0)
	maximum = 0.600444 (at node 7)
Accepted packet rate average = 0.2
	minimum = 0 (at node 3)
	maximum = 0.600556 (at node 8)
Injected flit rate average = 0.200173
	minimum = 0 (at node 0)
	maximum = 0.600444 (at node 7)
Accepted flit rate average= 0.2
	minimum = 0 (at node 3)
	maximum = 0.600556 (at node 8)
Injected packet length average = 1
Accepted packet length average = 1
Total in-flight flits = 23 (23 measured)
====== Peak Queue Occupancy Statistics (Absolute Max) ======
  Overall Max VC Occupancy = 1
  Overall Max Buffer Occupancy = 1
latency change    = 0.00387882
throughput change = 0.122222
Class 0:
Packet latency average = 8.8287
	minimum = 8
	maximum = 11
	95th percentile = 11.5
	99th percentile = 11.5
Network latency average = 8.8287
	minimum = 8
	maximum = 11
	95th percentile = 11.5
	99th percentile = 11.5
Slowest packet = 4000
Flit latency average = 8.82839
	minimum = 8
	maximum = 11
	95th percentile = 11.5
	99th percentile = 11.5
Slowest flit = 4000
Fragmentation average = 0
	minimum = 0
	maximum = 0
Injected packet rate average = 0.22537
	minimum = 0 (at node 0)
	maximum = 0.602083 (at node 7)
Accepted packet rate average = 0.225269
	minimum = 0 (at node 3)
	maximum = 0.602167 (at node 8)
Injected flit rate average = 0.22537
	minimum = 0 (at node 0)
	maximum = 0.602083 (at node 7)
Accepted flit rate average= 0.225269
	minimum = 0 (at node 3)
	maximum = 0.602167 (at node 8)
Injected packet length average = 1
Accepted packet length average = 1
Total in-flight flits = 20 (20 measured)
====== Peak Queue Occupancy Statistics (Absolute Max) ======
  Overall Max VC Occupancy = 1
  Overall Max Buffer Occupancy = 1
latency change    = 0.0089719
throughput change = 0.112171
Class 0:
Packet latency average = 9.0326
	minimum = 8
	maximum = 17
	95th percentile = 11.5
	99th percentile = 17.5
Network latency average = 9.0326
	minimum = 8
	maximum = 17
	95th percentile = 11.5
	99th percentile = 17.5
Slowest packet = 28391
Flit latency average = 9.03233
	minimum = 8
	maximum = 17
	95th percentile = 11.5
	99th percentile = 17.5
Slowest flit = 28391
Fragmentation average = 0
	minimum = 0
	maximum = 0
Injected packet rate average = 0.2506
	minimum = 0 (at node 0)
	maximum = 0.6016 (at node 7)
Accepted packet rate average = 0.250459
	minimum = 0 (at node 3)
	maximum = 0.601667 (at node 8)
Injected flit rate average = 0.2506
	minimum = 0 (at node 0)
	maximum = 0.6016 (at node 7)
Accepted flit rate average= 0.250459
	minimum = 0 (at node 3)
	maximum = 0.601667 (at node 8)
Injected packet length average = 1
Accepted packet length average = 1
Total in-flight flits = 28 (28 measured)
====== Peak Queue Occupancy Statistics (Absolute Max) ======
  Overall Max VC Occupancy = 1
  Overall Max Buffer Occupancy = 1
latency change    = 0.0225738
throughput change = 0.100578
Class 0:
Packet latency average = 9.38304
	minimum = 8
	maximum = 17
	95th percentile = 11.5
	99th percentile = 17.5
Network latency average = 9.38304
	minimum = 8
	maximum = 17
	95th percentile = 11.5
	99th percentile = 17.5
Slowest packet = 28391
Flit latency average = 9.38276
	minimum = 8
	maximum = 17
	95th percentile = 11.5
	99th percentile = 17.5
Slowest flit = 28391
Fragmentation average = 0
	minimum = 0
	maximum = 0
Injected packet rate average = 0.275333
	minimum = 0 (at node 0)
	maximum = 0.600111 (at node 7)
Accepted packet rate average = 0.275148
	minimum = 0 (at node 3)
	maximum = 0.600167 (at node 8)
Injected flit rate average = 0.275333
	minimum = 0 (at node 0)
	maximum = 0.600111 (at node 7)
Accepted flit rate average= 0.275148
	minimum = 0 (at node 3)
	maximum = 0.600167 (at node 8)
Injected packet length average = 1
Accepted packet length average = 1
Total in-flight flits = 39 (39 measured)
====== Peak Queue Occupancy Statistics (Absolute Max) ======
  Overall Max VC Occupancy = 1
  Overall Max Buffer Occupancy = 1
latency change    = 0.0373478
throughput change = 0.0897294
Class 0:
Packet latency average = 13.2561
	minimum = 8
	maximum = 492
	95th percentile = 21.5
	99th percentile = 88.5
Network latency average = 13.256
	minimum = 8
	maximum = 492
	95th percentile = 21.5
	99th percentile = 88.5
Slowest packet = 57476
Flit latency average = 13.2551
	minimum = 8
	maximum = 492
	95th percentile = 21.5
	99th percentile = 88.5
Slowest flit = 57476
Fragmentation average = 0
	minimum = 0
	maximum = 0
Injected packet rate average = 0.300582
	minimum = 0 (at node 3)
	maximum = 0.599952 (at node 7)
Accepted packet rate average = 0.299788
	minimum = 0 (at node 3)
	maximum = 0.600095 (at node 8)
Injected flit rate average = 0.300582
	minimum = 0 (at node 3)
	maximum = 0.599952 (at node 7)
Accepted flit rate average= 0.299788
	minimum = 0 (at node 3)
	maximum = 0.600095 (at node 8)
Injected packet length average = 1
Accepted packet length average = 1
Total in-flight flits = 160 (160 measured)
====== Peak Queue Occupancy Statistics (Absolute Max) ======
  Overall Max VC Occupancy = 1
  Overall Max Buffer Occupancy = 48
latency change    = 0.29217
throughput change = 0.082192
Class 0:
Packet latency average = 27.8256
	minimum = 8
	maximum = 2043
	95th percentile = 79.5
	99th percentile = 561.5
Network latency average = 19.6965
	minimum = 8
	maximum = 1816
	95th percentile = 75.5
	99th percentile = 181.5
Slowest packet = 63706
Flit latency average = 19.695
	minimum = 8
	maximum = 1816
	95th percentile = 75.5
	99th percentile = 181.5
Slowest flit = 64580
Fragmentation average = 0
	minimum = 0
	maximum = 0
Injected packet rate average = 0.322639
	minimum = 0 (at node 3)
	maximum = 0.599917 (at node 4)
Accepted packet rate average = 0.321648
	minimum = 0 (at node 5)
	maximum = 0.599917 (at node 1)
Injected flit rate average = 0.322639
	minimum = 0 (at node 3)
	maximum = 0.599917 (at node 4)
Accepted flit rate average= 0.321648
	minimum = 0 (at node 5)
	maximum = 0.599917 (at node 1)
Injected packet length average = 1
Accepted packet length average = 1
Total in-flight flits = 224 (224 measured)
====== Peak Queue Occupancy Statistics (Absolute Max) ======
  Overall Max VC Occupancy = 1
  Overall Max Buffer Occupancy = 48
latency change    = 0.523602
throughput change = 0.0679618
Class 0:
Packet latency average = 65.4482
	minimum = 8
	maximum = 2274
	95th percentile = 552.5
	99th percentile = 920.5
Network latency average = 30.5745
	minimum = 8
	maximum = 1878
	95th percentile = 119.5
	99th percentile = 361.5
Slowest packet = 63706
Flit latency average = 30.5721
	minimum = 8
	maximum = 1878
	95th percentile = 119.5
	99th percentile = 361.5
Slowest flit = 78692
Fragmentation average = 0
	minimum = 0
	maximum = 0
Injected packet rate average = 0.34372
	minimum = 0.0172963 (at node 3)
	maximum = 0.59837 (at node 4)
Accepted packet rate average = 0.341922
	minimum = 0.0172222 (at node 5)
	maximum = 0.598407 (at node 1)
Injected flit rate average = 0.34372
	minimum = 0.0172963 (at node 3)
	maximum = 0.59837 (at node 4)
Accepted flit rate average= 0.341922
	minimum = 0.0172222 (at node 5)
	maximum = 0.598407 (at node 1)
Injected packet length average = 1
Accepted packet length average = 1
Total in-flight flits = 448 (448 measured)
====== Peak Queue Occupancy Statistics (Absolute Max) ======
  Overall Max VC Occupancy = 1
  Overall Max Buffer Occupancy = 48
latency change    = 0.574846
throughput change = 0.0592933
Class 0:
Packet latency average = 122.603
	minimum = 8
	maximum = 2921
	95th percentile = 899.5
	99th percentile = 999.5
Network latency average = 39.6004
	minimum = 8
	maximum = 2158
	95th percentile = 145.5
	99th percentile = 501.5
Slowest packet = 63706
Flit latency average = 39.5975
	minimum = 8
	maximum = 2158
	95th percentile = 145.5
	99th percentile = 501.5
Slowest flit = 79440
Fragmentation average = 0
	minimum = 0
	maximum = 0
Injected packet rate average = 0.364981
	minimum = 0.0754 (at node 3)
	maximum = 0.599033 (at node 4)
Accepted packet rate average = 0.363326
	minimum = 0.0751667 (at node 5)
	maximum = 0.5991 (at node 1)
Injected flit rate average = 0.364981
	minimum = 0.0754 (at node 3)
	maximum = 0.599033 (at node 4)
Accepted flit rate average= 0.363326
	minimum = 0.0751667 (at node 5)
	maximum = 0.5991 (at node 1)
Injected packet length average = 1
Accepted packet length average = 1
Total in-flight flits = 458 (458 measured)
====== Peak Queue Occupancy Statistics (Absolute Max) ======
  Overall Max VC Occupancy = 1
  Overall Max Buffer Occupancy = 48
latency change    = 0.466178
throughput change = 0.0589116
Class 0:
Packet latency average = 192.007
	minimum = 8
	maximum = 3593
	95th percentile = 999.5
	99th percentile = 999.5
Network latency average = 46.5642
	minimum = 8
	maximum = 2158
	95th percentile = 181.5
	99th percentile = 596.5
Slowest packet = 63706
Flit latency average = 46.5612
	minimum = 8
	maximum = 2158
	95th percentile = 181.5
	99th percentile = 596.5
Slowest flit = 79440
Fragmentation average = 0
	minimum = 0
	maximum = 0
Injected packet rate average = 0.382475
	minimum = 0.123121 (at node 3)
	maximum = 0.599818 (at node 4)
Accepted packet rate average = 0.380953
	minimum = 0.122879 (at node 5)
	maximum = 0.599818 (at node 1)
Injected flit rate average = 0.382475
	minimum = 0.123121 (at node 3)
	maximum = 0.599818 (at node 4)
Accepted flit rate average= 0.380953
	minimum = 0.122879 (at node 5)
	maximum = 0.599818 (at node 1)
Injected packet length average = 1
Accepted packet length average = 1
Total in-flight flits = 462 (462 measured)
====== Peak Queue Occupancy Statistics (Absolute Max) ======
  Overall Max VC Occupancy = 1
  Overall Max Buffer Occupancy = 48
latency change    = 0.361467
throughput change = 0.0462706
Class 0:
Packet latency average = 269.411
	minimum = 8
	maximum = 3812
	95th percentile = 999.5
	99th percentile = 999.5
Network latency average = 51.768
	minimum = 8
	maximum = 2158
	95th percentile = 203.5
	99th percentile = 650.5
Slowest packet = 63706
Flit latency average = 51.7649
	minimum = 8
	maximum = 2158
	95th percentile = 203.5
	99th percentile = 650.5
Slowest flit = 79440
Fragmentation average = 0
	minimum = 0
	maximum = 0
Injected packet rate average = 0.39712
	minimum = 0.162944 (at node 3)
	maximum = 0.600306 (at node 4)
Accepted packet rate average = 0.395713
	minimum = 0.162722 (at node 5)
	maximum = 0.60025 (at node 1)
Injected flit rate average = 0.39712
	minimum = 0.162944 (at node 3)
	maximum = 0.600306 (at node 4)
Accepted flit rate average= 0.395713
	minimum = 0.162722 (at node 5)
	maximum = 0.60025 (at node 1)
Injected packet length average = 1
Accepted packet length average = 1
Total in-flight flits = 466 (466 measured)
====== Peak Queue Occupancy Statistics (Absolute Max) ======
  Overall Max VC Occupancy = 1
  Overall Max Buffer Occupancy = 48
latency change    = 0.287307
throughput change = 0.0373
Class 0:
Packet latency average = 352.033
	minimum = 8
	maximum = 4486
	95th percentile = 999.5
	99th percentile = 999.5
Network latency average = 55.774
	minimum = 8
	maximum = 2158
	95th percentile = 234.5
	99th percentile = 675.5
Slowest packet = 63706
Flit latency average = 55.771
	minimum = 8
	maximum = 2158
	95th percentile = 234.5
	99th percentile = 675.5
Slowest flit = 79440
Fragmentation average = 0
	minimum = 0
	maximum = 0
Injected packet rate average = 0.409538
	minimum = 0.195949 (at node 3)
	maximum = 0.600769 (at node 7)
Accepted packet rate average = 0.408256
	minimum = 0.195718 (at node 5)
	maximum = 0.600718 (at node 8)
Injected flit rate average = 0.409538
	minimum = 0.195949 (at node 3)
	maximum = 0.600769 (at node 7)
Accepted flit rate average= 0.408256
	minimum = 0.195718 (at node 5)
	maximum = 0.600718 (at node 8)
Injected packet length average = 1
Accepted packet length average = 1
Total in-flight flits = 461 (461 measured)
====== Peak Queue Occupancy Statistics (Absolute Max) ======
  Overall Max VC Occupancy = 1
  Overall Max Buffer Occupancy = 48
latency change    = 0.234698
throughput change = 0.0307244
Class 0:
Packet latency average = 437.873
	minimum = 8
	maximum = 4856
	95th percentile = 999.5
	99th percentile = 999.5
Network latency average = 59.1617
	minimum = 8
	maximum = 2158
	95th percentile = 253.5
	99th percentile = 723.5
Slowest packet = 63706
Flit latency average = 59.1588
	minimum = 8
	maximum = 2158
	95th percentile = 253.5
	99th percentile = 723.5
Slowest flit = 79440
Fragmentation average = 0
	minimum = 0
	maximum = 0
Injected packet rate average = 0.419836
	minimum = 0.224262 (at node 3)
	maximum = 0.600405 (at node 4)
Accepted packet rate average = 0.418677
	minimum = 0.224095 (at node 5)
	maximum = 0.600452 (at node 1)
Injected flit rate average = 0.419836
	minimum = 0.224262 (at node 3)
	maximum = 0.600405 (at node 4)
Accepted flit rate average= 0.418677
	minimum = 0.224095 (at node 5)
	maximum = 0.600452 (at node 1)
Injected packet length average = 1
Accepted packet length average = 1
Total in-flight flits = 450 (450 measured)
====== Peak Queue Occupancy Statistics (Absolute Max) ======
  Overall Max VC Occupancy = 1
  Overall Max Buffer Occupancy = 48
latency change    = 0.19604
throughput change = 0.0248899
Class 0:
Packet latency average = 525.106
	minimum = 8
	maximum = 5236
	95th percentile = 999.5
	99th percentile = 999.5
Network latency average = 61.9085
	minimum = 8
	maximum = 2158
	95th percentile = 269.5
	99th percentile = 775.5
Slowest packet = 63706
Flit latency average = 61.9057
	minimum = 8
	maximum = 2158
	95th percentile = 269.5
	99th percentile = 775.5
Slowest flit = 79440
Fragmentation average = 0
	minimum = 0
	maximum = 0
Injected packet rate average = 0.428973
	minimum = 0.2498 (at node 3)
	maximum = 0.600444 (at node 4)
Accepted packet rate average = 0.427857
	minimum = 0.249622 (at node 5)
	maximum = 0.600422 (at node 1)
Injected flit rate average = 0.428973
	minimum = 0.2498 (at node 3)
	maximum = 0.600444 (at node 4)
Accepted flit rate average= 0.427857
	minimum = 0.249622 (at node 5)
	maximum = 0.600422 (at node 1)
Injected packet length average = 1
Accepted packet length average = 1
Total in-flight flits = 464 (464 measured)
====== Peak Queue Occupancy Statistics (Absolute Max) ======
  Overall Max VC Occupancy = 1
  Overall Max Buffer Occupancy = 48
latency change    = 0.166124
throughput change = 0.0214547
Class 0:
Packet latency average = 616.228
	minimum = 8
	maximum = 6081
	95th percentile = 999.5
	99th percentile = 999.5
Network latency average = 64.2042
	minimum = 8
	maximum = 2158
	95th percentile = 279.5
	99th percentile = 797.5
Slowest packet = 63706
Flit latency average = 64.2015
	minimum = 8
	maximum = 2158
	95th percentile = 279.5
	99th percentile = 797.5
Slowest flit = 79440
Fragmentation average = 0
	minimum = 0
	maximum = 0
Injected packet rate average = 0.436674
	minimum = 0.270708 (at node 3)
	maximum = 0.600333 (at node 4)
Accepted packet rate average = 0.43565
	minimum = 0.268042 (at node 3)
	maximum = 0.600313 (at node 1)
Injected flit rate average = 0.436674
	minimum = 0.270708 (at node 3)
	maximum = 0.600333 (at node 4)
Accepted flit rate average= 0.43565
	minimum = 0.268042 (at node 3)
	maximum = 0.600313 (at node 1)
Injected packet length average = 1
Accepted packet length average = 1
Total in-flight flits = 453 (453 measured)
====== Peak Queue Occupancy Statistics (Absolute Max) ======
  Overall Max VC Occupancy = 1
  Overall Max Buffer Occupancy = 48
latency change    = 0.147871
throughput change = 0.0178897
Class 0:
Packet latency average = 709.255
	minimum = 8
	maximum = 6468
	95th percentile = 999.5
	99th percentile = 999.5
Network latency average = 66.2124
	minimum = 8
	maximum = 2158
	95th percentile = 286.5
	99th percentile = 843.5
Slowest packet = 63706
Flit latency average = 66.2098
	minimum = 8
	maximum = 2158
	95th percentile = 286.5
	99th percentile = 843.5
Slowest flit = 79440
Fragmentation average = 0
	minimum = 0
	maximum = 0
Injected packet rate average = 0.443625
	minimum = 0.286471 (at node 8)
	maximum = 0.601 (at node 4)
Accepted packet rate average = 0.442654
	minimum = 0.283275 (at node 3)
	maximum = 0.600961 (at node 1)
Injected flit rate average = 0.443625
	minimum = 0.286471 (at node 8)
	maximum = 0.601 (at node 4)
Accepted flit rate average= 0.442654
	minimum = 0.283275 (at node 3)
	maximum = 0.600961 (at node 1)
Injected packet length average = 1
Accepted packet length average = 1
Total in-flight flits = 457 (457 measured)
====== Peak Queue Occupancy Statistics (Absolute Max) ======
  Overall Max VC Occupancy = 1
  Overall Max Buffer Occupancy = 48
latency change    = 0.13116
throughput change = 0.0158208
Class 0:
Packet latency average = 803.172
	minimum = 8
	maximum = 6892
	95th percentile = 999.5
	99th percentile = 999.5
Network latency average = 67.9016
	minimum = 8
	maximum = 2158
	95th percentile = 296.5
	99th percentile = 891.5
Slowest packet = 63706
Flit latency average = 67.8991
	minimum = 8
	maximum = 2158
	95th percentile = 296.5
	99th percentile = 891.5
Slowest flit = 79440
Fragmentation average = 0
	minimum = 0
	maximum = 0
Injected packet rate average = 0.44964
	minimum = 0.295148 (at node 8)
	maximum = 0.600019 (at node 7)
Accepted packet rate average = 0.448712
	minimum = 0.292093 (at node 3)
	maximum = 0.600019 (at node 8)
Injected flit rate average = 0.44964
	minimum = 0.295148 (at node 8)
	maximum = 0.600019 (at node 7)
Accepted flit rate average= 0.448712
	minimum = 0.292093 (at node 3)
	maximum = 0.600019 (at node 8)
Injected packet length average = 1
Accepted packet length average = 1
Total in-flight flits = 461 (461 measured)
====== Peak Queue Occupancy Statistics (Absolute Max) ======
  Overall Max VC Occupancy = 1
  Overall Max Buffer Occupancy = 48
latency change    = 0.116933
throughput change = 0.0135016
Class 0:
Packet latency average = 898.512
	minimum = 8
	maximum = 7620
	95th percentile = 999.5
	99th percentile = 999.5
Network latency average = 69.3987
	minimum = 8
	maximum = 2158
	95th percentile = 303.5
	99th percentile = 959.5
Slowest packet = 63706
Flit latency average = 69.3963
	minimum = 8
	maximum = 2158
	95th percentile = 303.5
	99th percentile = 959.5
Slowest flit = 79440
Fragmentation average = 0
	minimum = 0
	maximum = 0
Injected packet rate average = 0.455205
	minimum = 0.307965 (at node 8)
	maximum = 0.600263 (at node 7)
Accepted packet rate average = 0.454318
	minimum = 0.305123 (at node 3)
	maximum = 0.600228 (at node 8)
Injected flit rate average = 0.455205
	minimum = 0.307965 (at node 8)
	maximum = 0.600263 (at node 7)
Accepted flit rate average= 0.454318
	minimum = 0.305123 (at node 3)
	maximum = 0.600228 (at node 8)
Injected packet length average = 1
Accepted packet length average = 1
Total in-flight flits = 466 (466 measured)
====== Peak Queue Occupancy Statistics (Absolute Max) ======
  Overall Max VC Occupancy = 1
  Overall Max Buffer Occupancy = 48
latency change    = 0.106109
throughput change = 0.012339
Class 0:
Packet latency average = 994.095
	minimum = 8
	maximum = 7978
	95th percentile = 999.5
	99th percentile = 999.5
Network latency average = 70.6927
	minimum = 8
	maximum = 2180
	95th percentile = 310.5
	99th percentile = 999.5
Slowest packet = 63706
Flit latency average = 70.6904
	minimum = 8
	maximum = 2180
	95th percentile = 310.5
	99th percentile = 999.5
Slowest flit = 235071
Fragmentation average = 0
	minimum = 0
	maximum = 0
Injected packet rate average = 0.460407
	minimum = 0.317867 (at node 8)
	maximum = 0.6007 (at node 7)
Accepted packet rate average = 0.459609
	minimum = 0.315067 (at node 3)
	maximum = 0.600717 (at node 8)
Injected flit rate average = 0.460407
	minimum = 0.317867 (at node 8)
	maximum = 0.6007 (at node 7)
Accepted flit rate average= 0.459609
	minimum = 0.315067 (at node 3)
	maximum = 0.600717 (at node 8)
Injected packet length average = 1
Accepted packet length average = 1
Total in-flight flits = 442 (442 measured)
====== Peak Queue Occupancy Statistics (Absolute Max) ======
  Overall Max VC Occupancy = 1
  Overall Max Buffer Occupancy = 48
latency change    = 0.0961505
throughput change = 0.0115131
Class 0:
Packet latency average = 1090.66
	minimum = 8
	maximum = 8405
	95th percentile = 999.5
	99th percentile = 999.5
Network latency average = 71.8062
	minimum = 8
	maximum = 2180
	95th percentile = 319.5
	99th percentile = 999.5
Slowest packet = 63706
Flit latency average = 71.804
	minimum = 8
	maximum = 2180
	95th percentile = 319.5
	99th percentile = 999.5
Slowest flit = 235071
Fragmentation average = 0
	minimum = 0
	maximum = 0
Injected packet rate average = 0.46491
	minimum = 0.324159 (at node 8)
	maximum = 0.600937 (at node 7)
Accepted packet rate average = 0.464116
	minimum = 0.321524 (at node 3)
	maximum = 0.600905 (at node 8)
Injected flit rate average = 0.46491
	minimum = 0.324159 (at node 8)
	maximum = 0.600937 (at node 7)
Accepted flit rate average= 0.464116
	minimum = 0.321524 (at node 3)
	maximum = 0.600905 (at node 8)
Injected packet length average = 1
Accepted packet length average = 1
Total in-flight flits = 462 (462 measured)
====== Peak Queue Occupancy Statistics (Absolute Max) ======
  Overall Max VC Occupancy = 1
  Overall Max Buffer Occupancy = 48
latency change    = 0.0885349
throughput change = 0.00971123
Class 0:
Packet latency average = 1187.91
	minimum = 8
	maximum = 9033
	95th percentile = 999.5
	99th percentile = 999.5
Network latency average = 72.863
	minimum = 8
	maximum = 2351
	95th percentile = 325.5
	99th percentile = 999.5
Slowest packet = 63706
Flit latency average = 72.8609
	minimum = 8
	maximum = 2351
	95th percentile = 325.5
	99th percentile = 999.5
Slowest flit = 258783
Fragmentation average = 0
	minimum = 0
	maximum = 0
Injected packet rate average = 0.468889
	minimum = 0.334227 (at node 8)
	maximum = 0.600803 (at node 7)
Accepted packet rate average = 0.468136
	minimum = 0.331758 (at node 3)
	maximum = 0.600758 (at node 8)
Injected flit rate average = 0.468889
	minimum = 0.334227 (at node 8)
	maximum = 0.600803 (at node 7)
Accepted flit rate average= 0.468136
	minimum = 0.331758 (at node 3)
	maximum = 0.600758 (at node 8)
Injected packet length average = 1
Accepted packet length average = 1
Total in-flight flits = 459 (459 measured)
====== Peak Queue Occupancy Statistics (Absolute Max) ======
  Overall Max VC Occupancy = 1
  Overall Max Buffer Occupancy = 48
latency change    = 0.0818725
throughput change = 0.00858716
Draining all recorded packets ...
Class 0:
Remaining flits: 280507 280858 281381 281476 281603 281718 281813 281837 281894 281952 [...] (461 flits)
Measured flits: 280507 280858 281381 281476 281603 281718 281813 281837 281894 281952 [...] (431 flits)
Class 0:
Remaining flits: 284366 285096 285258 285560 285630 285744 286280 286488 286559 286676 [...] (453 flits)
Measured flits: 284366 285096 285258 285560 285630 285744 286280 286488 286559 286676 [...] (426 flits)
Class 0:
Remaining flits: 291260 291283 291529 291548 291700 291718 291779 291802 292022 292043 [...] (453 flits)
Measured flits: 291260 291283 291529 291548 291700 291718 291779 291802 292022 292043 [...] (425 flits)
Class 0:
Remaining flits: 295672 296452 296564 296682 296919 297053 297155 297257 297278 297341 [...] (461 flits)
Measured flits: 295672 296452 296564 296682 296919 297053 297155 297257 297278 297341 [...] (427 flits)
Class 0:
Remaining flits: 301270 301337 301507 301757 301999 302101 302240 302241 302280 302327 [...] (456 flits)
Measured flits: 301270 301337 301507 301757 301999 302101 302240 302241 302280 302327 [...] (429 flits)
Class 0:
Remaining flits: 304861 305178 305685 305717 305967 306086 306134 306327 306630 306722 [...] (459 flits)
Measured flits: 304861 305178 305685 305717 305967 306086 306134 306327 306630 306722 [...] (427 flits)
Class 0:
Remaining flits: 309420 311301 311528 311548 311606 311690 311780 311807 311812 312018 [...] (461 flits)
Measured flits: 309420 311301 311528 311548 311606 311690 311780 311807 311812 312018 [...] (427 flits)
Class 0:
Remaining flits: 315276 315318 315459 316601 316651 316832 316885 316911 317068 317309 [...] (449 flits)
Measured flits: 315276 315318 315459 316601 316651 316832 316885 316911 317068 317309 [...] (419 flits)
Class 0:
Remaining flits: 320635 321481 321718 321766 321964 322013 322202 322253 322340 322452 [...] (461 flits)
Measured flits: 320635 321481 321718 321766 321964 322013 322202 322253 322340 322452 [...] (155 flits)
Class 0:
Remaining flits: 326254 326286 326525 326572 326763 326780 327005 327021 327275 327360 [...] (452 flits)
Measured flits: 326286 326525 326763 326780 327005 327021 327275 327613 327850 328086 [...] (17 flits)
Draining remaining packets ...
Time taken is 82853 cycles
====== Overall Traffic Statistics ======
====== Traffic class 0 ======
Packet latency average = 1611.63 (1 samples)
	minimum = 8 (1 samples)
	maximum = 10712 (1 samples)
Network latency average = 81.413 (1 samples)
	minimum = 8 (1 samples)
	maximum = 2351 (1 samples)
Flit latency average = 76.0464 (1 samples)
	minimum = 8 (1 samples)
	maximum = 2351 (1 samples)
Fragmentation average = 0 (1 samples)
	minimum = 0 (1 samples)
	maximum = 0 (1 samples)
Injected packet rate average = 0.468889 (1 samples)
	minimum = 0.334227 (1 samples)
	maximum = 0.600803 (1 samples)
Accepted packet rate average = 0.468136 (1 samples)
	minimum = 0.331758 (1 samples)
	maximum = 0.600758 (1 samples)
Injected flit rate average = 0.468889 (1 samples)
	minimum = 0.334227 (1 samples)
	maximum = 0.600803 (1 samples)
Accepted flit rate average = 0.468136 (1 samples)
	minimum = 0.331758 (1 samples)
	maximum = 0.600758 (1 samples)
Injected packet size average = 1 (1 samples)
Accepted packet size average = 1 (1 samples)
Hops average = 2.91135 (1 samples)
Total run time 28.3959

